
---------- Begin Simulation Statistics ----------
final_tick                                  800756000                       # Number of ticks from beginning of simulation (restored from checkpoints and never reset)
host_inst_rate                                  14809                       # Simulator instruction rate (inst/s)
host_mem_usage                                5159788                       # Number of bytes of host memory used
host_op_rate                                    14857                       # Simulator op (including micro ops) rate (op/s)
host_seconds                                     8.02                       # Real time elapsed on the host
host_tick_rate                               99868746                       # Simulator tick rate (ticks/s)
sim_freq                                 1000000000000                       # Frequency of simulated ticks
sim_insts                                      118739                       # Number of instructions simulated
sim_ops                                        119121                       # Number of ops (including micro ops) simulated
sim_seconds                                  0.000801                       # Number of seconds simulated
sim_ticks                                   800756000                       # Number of ticks simulated
system.clk_domain.clock                          1000                       # Clock period in ticks
system.cpu00.Branches                           22348                       # Number of branches fetched
system.cpu00.committedInsts                    100001                       # Number of instructions committed
system.cpu00.committedOps                      100294                       # Number of ops (including micro ops) committed
system.cpu00.dtb.accesses                           0                       # DTB accesses
system.cpu00.dtb.hits                               0                       # DTB hits
system.cpu00.dtb.misses                             0                       # DTB misses
system.cpu00.dtb.pwrStateResidencyTicks::UNDEFINED    800756000                       # Cumulative time (in ticks) in various power states
system.cpu00.dtb.read_accesses                      0                       # DTB read accesses
system.cpu00.dtb.read_hits                          0                       # DTB read hits
system.cpu00.dtb.read_misses                        0                       # DTB read misses
system.cpu00.dtb.write_accesses                     0                       # DTB write accesses
system.cpu00.dtb.write_hits                         0                       # DTB write hits
system.cpu00.dtb.write_misses                       0                       # DTB write misses
system.cpu00.idle_fraction                   0.001625                       # Percentage of idle cycles
system.cpu00.itb.accesses                           0                       # DTB accesses
system.cpu00.itb.hits                               0                       # DTB hits
system.cpu00.itb.misses                             0                       # DTB misses
system.cpu00.itb.pwrStateResidencyTicks::UNDEFINED    800756000                       # Cumulative time (in ticks) in various power states
system.cpu00.itb.read_accesses                      0                       # DTB read accesses
system.cpu00.itb.read_hits                          0                       # DTB read hits
system.cpu00.itb.read_misses                        0                       # DTB read misses
system.cpu00.itb.write_accesses                     0                       # DTB write accesses
system.cpu00.itb.write_hits                         0                       # DTB write hits
system.cpu00.itb.write_misses                       0                       # DTB write misses
system.cpu00.not_idle_fraction               0.998375                       # Percentage of non-idle cycles
system.cpu00.numCycles                        1601512                       # number of cpu cycles simulated
system.cpu00.numPwrStateTransitions                 2                       # Number of power state transitions
system.cpu00.numWorkItemsCompleted                  0                       # number of work items this cpu completed
system.cpu00.numWorkItemsStarted                    0                       # number of work items this cpu started
system.cpu00.num_busy_cycles             1598909.000003                       # Number of busy cycles
system.cpu00.num_conditional_control_insts        15925                       # number of instructions that are conditional controls
system.cpu00.num_fp_alu_accesses                   12                       # Number of float alu accesses
system.cpu00.num_fp_insts                          12                       # number of float instructions
system.cpu00.num_fp_register_reads                 12                       # number of times the floating registers were read
system.cpu00.num_fp_register_writes                 0                       # number of times the floating registers were written
system.cpu00.num_func_calls                      6423                       # number of times a function call or return occured
system.cpu00.num_idle_cycles              2602.999997                       # Number of idle cycles
system.cpu00.num_int_alu_accesses               98832                       # Number of integer alu accesses
system.cpu00.num_int_insts                      98832                       # number of integer instructions
system.cpu00.num_int_register_reads            120840                       # number of times the integer registers were read
system.cpu00.num_int_register_writes            64471                       # number of times the integer registers were written
system.cpu00.num_load_insts                     20289                       # Number of load instructions
system.cpu00.num_mem_refs                       36557                       # number of memory refs
system.cpu00.num_store_insts                    16268                       # Number of store instructions
system.cpu00.num_vec_alu_accesses                   0                       # Number of vector alu accesses
system.cpu00.num_vec_insts                          0                       # number of vector instructions
system.cpu00.num_vec_register_reads                 0                       # number of times the vector registers were read
system.cpu00.num_vec_register_writes                0                       # number of times the vector registers were written
system.cpu00.op_class::No_OpClass                 859      0.86%      0.86% # Class of executed instruction
system.cpu00.op_class::IntAlu                   62914     62.68%     63.54% # Class of executed instruction
system.cpu00.op_class::IntMult                     30      0.03%     63.57% # Class of executed instruction
system.cpu00.op_class::IntDiv                       6      0.01%     63.58% # Class of executed instruction
system.cpu00.op_class::FloatAdd                     0      0.00%     63.58% # Class of executed instruction
system.cpu00.op_class::FloatCmp                     0      0.00%     63.58% # Class of executed instruction
system.cpu00.op_class::FloatCvt                     0      0.00%     63.58% # Class of executed instruction
system.cpu00.op_class::FloatMult                    0      0.00%     63.58% # Class of executed instruction
system.cpu00.op_class::FloatMultAcc                 0      0.00%     63.58% # Class of executed instruction
system.cpu00.op_class::FloatDiv                     0      0.00%     63.58% # Class of executed instruction
system.cpu00.op_class::FloatMisc                    0      0.00%     63.58% # Class of executed instruction
system.cpu00.op_class::FloatSqrt                    0      0.00%     63.58% # Class of executed instruction
system.cpu00.op_class::SimdAdd                      0      0.00%     63.58% # Class of executed instruction
system.cpu00.op_class::SimdAddAcc                   0      0.00%     63.58% # Class of executed instruction
system.cpu00.op_class::SimdAlu                      0      0.00%     63.58% # Class of executed instruction
system.cpu00.op_class::SimdCmp                      0      0.00%     63.58% # Class of executed instruction
system.cpu00.op_class::SimdCvt                      0      0.00%     63.58% # Class of executed instruction
system.cpu00.op_class::SimdMisc                     0      0.00%     63.58% # Class of executed instruction
system.cpu00.op_class::SimdMult                     0      0.00%     63.58% # Class of executed instruction
system.cpu00.op_class::SimdMultAcc                  0      0.00%     63.58% # Class of executed instruction
system.cpu00.op_class::SimdShift                    0      0.00%     63.58% # Class of executed instruction
system.cpu00.op_class::SimdShiftAcc                 0      0.00%     63.58% # Class of executed instruction
system.cpu00.op_class::SimdSqrt                     0      0.00%     63.58% # Class of executed instruction
system.cpu00.op_class::SimdFloatAdd                 0      0.00%     63.58% # Class of executed instruction
system.cpu00.op_class::SimdFloatAlu                 0      0.00%     63.58% # Class of executed instruction
system.cpu00.op_class::SimdFloatCmp                 0      0.00%     63.58% # Class of executed instruction
system.cpu00.op_class::SimdFloatCvt                 0      0.00%     63.58% # Class of executed instruction
system.cpu00.op_class::SimdFloatDiv                 0      0.00%     63.58% # Class of executed instruction
system.cpu00.op_class::SimdFloatMisc                0      0.00%     63.58% # Class of executed instruction
system.cpu00.op_class::SimdFloatMult                0      0.00%     63.58% # Class of executed instruction
system.cpu00.op_class::SimdFloatMultAcc             0      0.00%     63.58% # Class of executed instruction
system.cpu00.op_class::SimdFloatSqrt                0      0.00%     63.58% # Class of executed instruction
system.cpu00.op_class::SimdAes                      0      0.00%     63.58% # Class of executed instruction
system.cpu00.op_class::SimdAesMix                   0      0.00%     63.58% # Class of executed instruction
system.cpu00.op_class::SimdSha1Hash                 0      0.00%     63.58% # Class of executed instruction
system.cpu00.op_class::SimdSha1Hash2                0      0.00%     63.58% # Class of executed instruction
system.cpu00.op_class::SimdSha256Hash               0      0.00%     63.58% # Class of executed instruction
system.cpu00.op_class::SimdSha256Hash2              0      0.00%     63.58% # Class of executed instruction
system.cpu00.op_class::SimdShaSigma2                0      0.00%     63.58% # Class of executed instruction
system.cpu00.op_class::SimdShaSigma3                0      0.00%     63.58% # Class of executed instruction
system.cpu00.op_class::MemRead                  20574     20.50%     84.08% # Class of executed instruction
system.cpu00.op_class::MemWrite                 15971     15.91%     99.99% # Class of executed instruction
system.cpu00.op_class::FloatMemRead                 0      0.00%     99.99% # Class of executed instruction
system.cpu00.op_class::FloatMemWrite               12      0.01%    100.00% # Class of executed instruction
system.cpu00.op_class::IprAccess                    0      0.00%    100.00% # Class of executed instruction
system.cpu00.op_class::InstPrefetch                 0      0.00%    100.00% # Class of executed instruction
system.cpu00.op_class::total                   100366                       # Class of executed instruction
system.cpu00.pwrStateClkGateDist::samples            1                       # Distribution of time spent in the clock gated state
system.cpu00.pwrStateClkGateDist::mean        1301500                       # Distribution of time spent in the clock gated state
system.cpu00.pwrStateClkGateDist::1000-5e+10            1    100.00%    100.00% # Distribution of time spent in the clock gated state
system.cpu00.pwrStateClkGateDist::min_value      1301500                       # Distribution of time spent in the clock gated state
system.cpu00.pwrStateClkGateDist::max_value      1301500                       # Distribution of time spent in the clock gated state
system.cpu00.pwrStateClkGateDist::total             1                       # Distribution of time spent in the clock gated state
system.cpu00.pwrStateResidencyTicks::ON     799454500                       # Cumulative time (in ticks) in various power states
system.cpu00.pwrStateResidencyTicks::CLK_GATED      1301500                       # Cumulative time (in ticks) in various power states
system.cpu00.workload.numSyscalls                  71                       # Number of system calls
system.cpu01.Branches                             222                       # Number of branches fetched
system.cpu01.committedInsts                      1140                       # Number of instructions committed
system.cpu01.committedOps                        1146                       # Number of ops (including micro ops) committed
system.cpu01.dtb.accesses                           0                       # DTB accesses
system.cpu01.dtb.hits                               0                       # DTB hits
system.cpu01.dtb.misses                             0                       # DTB misses
system.cpu01.dtb.pwrStateResidencyTicks::UNDEFINED    800756000                       # Cumulative time (in ticks) in various power states
system.cpu01.dtb.read_accesses                      0                       # DTB read accesses
system.cpu01.dtb.read_hits                          0                       # DTB read hits
system.cpu01.dtb.read_misses                        0                       # DTB read misses
system.cpu01.dtb.write_accesses                     0                       # DTB write accesses
system.cpu01.dtb.write_hits                         0                       # DTB write hits
system.cpu01.dtb.write_misses                       0                       # DTB write misses
system.cpu01.idle_fraction                   0.980129                       # Percentage of idle cycles
system.cpu01.itb.accesses                           0                       # DTB accesses
system.cpu01.itb.hits                               0                       # DTB hits
system.cpu01.itb.misses                             0                       # DTB misses
system.cpu01.itb.pwrStateResidencyTicks::UNDEFINED    800756000                       # Cumulative time (in ticks) in various power states
system.cpu01.itb.read_accesses                      0                       # DTB read accesses
system.cpu01.itb.read_hits                          0                       # DTB read hits
system.cpu01.itb.read_misses                        0                       # DTB read misses
system.cpu01.itb.write_accesses                     0                       # DTB write accesses
system.cpu01.itb.write_hits                         0                       # DTB write hits
system.cpu01.itb.write_misses                       0                       # DTB write misses
system.cpu01.not_idle_fraction               0.019871                       # Percentage of non-idle cycles
system.cpu01.numCycles                        1601363                       # number of cpu cycles simulated
system.cpu01.numPwrStateTransitions                 2                       # Number of power state transitions
system.cpu01.numWorkItemsCompleted                  0                       # number of work items this cpu completed
system.cpu01.numWorkItemsStarted                    0                       # number of work items this cpu started
system.cpu01.num_busy_cycles             31820.041241                       # Number of busy cycles
system.cpu01.num_conditional_control_insts          117                       # number of instructions that are conditional controls
system.cpu01.num_fp_alu_accesses                   12                       # Number of float alu accesses
system.cpu01.num_fp_insts                          12                       # number of float instructions
system.cpu01.num_fp_register_reads                 12                       # number of times the floating registers were read
system.cpu01.num_fp_register_writes                 0                       # number of times the floating registers were written
system.cpu01.num_func_calls                       105                       # number of times a function call or return occured
system.cpu01.num_idle_cycles             1569542.958759                       # Number of idle cycles
system.cpu01.num_int_alu_accesses                1122                       # Number of integer alu accesses
system.cpu01.num_int_insts                       1122                       # number of integer instructions
system.cpu01.num_int_register_reads              1311                       # number of times the integer registers were read
system.cpu01.num_int_register_writes              787                       # number of times the integer registers were written
system.cpu01.num_load_insts                       259                       # Number of load instructions
system.cpu01.num_mem_refs                         442                       # number of memory refs
system.cpu01.num_store_insts                      183                       # Number of store instructions
system.cpu01.num_vec_alu_accesses                   0                       # Number of vector alu accesses
system.cpu01.num_vec_insts                          0                       # number of vector instructions
system.cpu01.num_vec_register_reads                 0                       # number of times the vector registers were read
system.cpu01.num_vec_register_writes                0                       # number of times the vector registers were written
system.cpu01.op_class::No_OpClass                  10      0.87%      0.87% # Class of executed instruction
system.cpu01.op_class::IntAlu                     693     60.37%     61.24% # Class of executed instruction
system.cpu01.op_class::IntMult                      1      0.09%     61.32% # Class of executed instruction
system.cpu01.op_class::IntDiv                       2      0.17%     61.50% # Class of executed instruction
system.cpu01.op_class::FloatAdd                     0      0.00%     61.50% # Class of executed instruction
system.cpu01.op_class::FloatCmp                     0      0.00%     61.50% # Class of executed instruction
system.cpu01.op_class::FloatCvt                     0      0.00%     61.50% # Class of executed instruction
system.cpu01.op_class::FloatMult                    0      0.00%     61.50% # Class of executed instruction
system.cpu01.op_class::FloatMultAcc                 0      0.00%     61.50% # Class of executed instruction
system.cpu01.op_class::FloatDiv                     0      0.00%     61.50% # Class of executed instruction
system.cpu01.op_class::FloatMisc                    0      0.00%     61.50% # Class of executed instruction
system.cpu01.op_class::FloatSqrt                    0      0.00%     61.50% # Class of executed instruction
system.cpu01.op_class::SimdAdd                      0      0.00%     61.50% # Class of executed instruction
system.cpu01.op_class::SimdAddAcc                   0      0.00%     61.50% # Class of executed instruction
system.cpu01.op_class::SimdAlu                      0      0.00%     61.50% # Class of executed instruction
system.cpu01.op_class::SimdCmp                      0      0.00%     61.50% # Class of executed instruction
system.cpu01.op_class::SimdCvt                      0      0.00%     61.50% # Class of executed instruction
system.cpu01.op_class::SimdMisc                     0      0.00%     61.50% # Class of executed instruction
system.cpu01.op_class::SimdMult                     0      0.00%     61.50% # Class of executed instruction
system.cpu01.op_class::SimdMultAcc                  0      0.00%     61.50% # Class of executed instruction
system.cpu01.op_class::SimdShift                    0      0.00%     61.50% # Class of executed instruction
system.cpu01.op_class::SimdShiftAcc                 0      0.00%     61.50% # Class of executed instruction
system.cpu01.op_class::SimdSqrt                     0      0.00%     61.50% # Class of executed instruction
system.cpu01.op_class::SimdFloatAdd                 0      0.00%     61.50% # Class of executed instruction
system.cpu01.op_class::SimdFloatAlu                 0      0.00%     61.50% # Class of executed instruction
system.cpu01.op_class::SimdFloatCmp                 0      0.00%     61.50% # Class of executed instruction
system.cpu01.op_class::SimdFloatCvt                 0      0.00%     61.50% # Class of executed instruction
system.cpu01.op_class::SimdFloatDiv                 0      0.00%     61.50% # Class of executed instruction
system.cpu01.op_class::SimdFloatMisc                0      0.00%     61.50% # Class of executed instruction
system.cpu01.op_class::SimdFloatMult                0      0.00%     61.50% # Class of executed instruction
system.cpu01.op_class::SimdFloatMultAcc             0      0.00%     61.50% # Class of executed instruction
system.cpu01.op_class::SimdFloatSqrt                0      0.00%     61.50% # Class of executed instruction
system.cpu01.op_class::SimdAes                      0      0.00%     61.50% # Class of executed instruction
system.cpu01.op_class::SimdAesMix                   0      0.00%     61.50% # Class of executed instruction
system.cpu01.op_class::SimdSha1Hash                 0      0.00%     61.50% # Class of executed instruction
system.cpu01.op_class::SimdSha1Hash2                0      0.00%     61.50% # Class of executed instruction
system.cpu01.op_class::SimdSha256Hash               0      0.00%     61.50% # Class of executed instruction
system.cpu01.op_class::SimdSha256Hash2              0      0.00%     61.50% # Class of executed instruction
system.cpu01.op_class::SimdShaSigma2                0      0.00%     61.50% # Class of executed instruction
system.cpu01.op_class::SimdShaSigma3                0      0.00%     61.50% # Class of executed instruction
system.cpu01.op_class::MemRead                    263     22.91%     84.41% # Class of executed instruction
system.cpu01.op_class::MemWrite                   167     14.55%     98.95% # Class of executed instruction
system.cpu01.op_class::FloatMemRead                 0      0.00%     98.95% # Class of executed instruction
system.cpu01.op_class::FloatMemWrite               12      1.05%    100.00% # Class of executed instruction
system.cpu01.op_class::IprAccess                    0      0.00%    100.00% # Class of executed instruction
system.cpu01.op_class::InstPrefetch                 0      0.00%    100.00% # Class of executed instruction
system.cpu01.op_class::total                     1148                       # Class of executed instruction
system.cpu01.pwrStateClkGateDist::samples            1                       # Distribution of time spent in the clock gated state
system.cpu01.pwrStateClkGateDist::mean      179545000                       # Distribution of time spent in the clock gated state
system.cpu01.pwrStateClkGateDist::1000-5e+10            1    100.00%    100.00% # Distribution of time spent in the clock gated state
system.cpu01.pwrStateClkGateDist::min_value    179545000                       # Distribution of time spent in the clock gated state
system.cpu01.pwrStateClkGateDist::max_value    179545000                       # Distribution of time spent in the clock gated state
system.cpu01.pwrStateClkGateDist::total             1                       # Distribution of time spent in the clock gated state
system.cpu01.pwrStateResidencyTicks::ON     621211000                       # Cumulative time (in ticks) in various power states
system.cpu01.pwrStateResidencyTicks::CLK_GATED    179545000                       # Cumulative time (in ticks) in various power states
system.cpu02.Branches                             248                       # Number of branches fetched
system.cpu02.committedInsts                      1280                       # Number of instructions committed
system.cpu02.committedOps                        1286                       # Number of ops (including micro ops) committed
system.cpu02.dtb.accesses                           0                       # DTB accesses
system.cpu02.dtb.hits                               0                       # DTB hits
system.cpu02.dtb.misses                             0                       # DTB misses
system.cpu02.dtb.pwrStateResidencyTicks::UNDEFINED    800756000                       # Cumulative time (in ticks) in various power states
system.cpu02.dtb.read_accesses                      0                       # DTB read accesses
system.cpu02.dtb.read_hits                          0                       # DTB read hits
system.cpu02.dtb.read_misses                        0                       # DTB read misses
system.cpu02.dtb.write_accesses                     0                       # DTB write accesses
system.cpu02.dtb.write_hits                         0                       # DTB write hits
system.cpu02.dtb.write_misses                       0                       # DTB write misses
system.cpu02.idle_fraction                   0.982547                       # Percentage of idle cycles
system.cpu02.itb.accesses                           0                       # DTB accesses
system.cpu02.itb.hits                               0                       # DTB hits
system.cpu02.itb.misses                             0                       # DTB misses
system.cpu02.itb.pwrStateResidencyTicks::UNDEFINED    800756000                       # Cumulative time (in ticks) in various power states
system.cpu02.itb.read_accesses                      0                       # DTB read accesses
system.cpu02.itb.read_hits                          0                       # DTB read hits
system.cpu02.itb.read_misses                        0                       # DTB read misses
system.cpu02.itb.write_accesses                     0                       # DTB write accesses
system.cpu02.itb.write_hits                         0                       # DTB write hits
system.cpu02.itb.write_misses                       0                       # DTB write misses
system.cpu02.not_idle_fraction               0.017453                       # Percentage of non-idle cycles
system.cpu02.numCycles                        1601362                       # number of cpu cycles simulated
system.cpu02.numPwrStateTransitions                 2                       # Number of power state transitions
system.cpu02.numWorkItemsCompleted                  0                       # number of work items this cpu completed
system.cpu02.numWorkItemsStarted                    0                       # number of work items this cpu started
system.cpu02.num_busy_cycles             27948.384033                       # Number of busy cycles
system.cpu02.num_conditional_control_insts          131                       # number of instructions that are conditional controls
system.cpu02.num_fp_alu_accesses                   12                       # Number of float alu accesses
system.cpu02.num_fp_insts                          12                       # number of float instructions
system.cpu02.num_fp_register_reads                 12                       # number of times the floating registers were read
system.cpu02.num_fp_register_writes                 0                       # number of times the floating registers were written
system.cpu02.num_func_calls                       117                       # number of times a function call or return occured
system.cpu02.num_idle_cycles             1573413.615967                       # Number of idle cycles
system.cpu02.num_int_alu_accesses                1260                       # Number of integer alu accesses
system.cpu02.num_int_insts                       1260                       # number of integer instructions
system.cpu02.num_int_register_reads              1468                       # number of times the integer registers were read
system.cpu02.num_int_register_writes              890                       # number of times the integer registers were written
system.cpu02.num_load_insts                       292                       # Number of load instructions
system.cpu02.num_mem_refs                         490                       # number of memory refs
system.cpu02.num_store_insts                      198                       # Number of store instructions
system.cpu02.num_vec_alu_accesses                   0                       # Number of vector alu accesses
system.cpu02.num_vec_insts                          0                       # number of vector instructions
system.cpu02.num_vec_register_reads                 0                       # number of times the vector registers were read
system.cpu02.num_vec_register_writes                0                       # number of times the vector registers were written
system.cpu02.op_class::No_OpClass                  10      0.78%      0.78% # Class of executed instruction
system.cpu02.op_class::IntAlu                     785     60.95%     61.72% # Class of executed instruction
system.cpu02.op_class::IntMult                      1      0.08%     61.80% # Class of executed instruction
system.cpu02.op_class::IntDiv                       2      0.16%     61.96% # Class of executed instruction
system.cpu02.op_class::FloatAdd                     0      0.00%     61.96% # Class of executed instruction
system.cpu02.op_class::FloatCmp                     0      0.00%     61.96% # Class of executed instruction
system.cpu02.op_class::FloatCvt                     0      0.00%     61.96% # Class of executed instruction
system.cpu02.op_class::FloatMult                    0      0.00%     61.96% # Class of executed instruction
system.cpu02.op_class::FloatMultAcc                 0      0.00%     61.96% # Class of executed instruction
system.cpu02.op_class::FloatDiv                     0      0.00%     61.96% # Class of executed instruction
system.cpu02.op_class::FloatMisc                    0      0.00%     61.96% # Class of executed instruction
system.cpu02.op_class::FloatSqrt                    0      0.00%     61.96% # Class of executed instruction
system.cpu02.op_class::SimdAdd                      0      0.00%     61.96% # Class of executed instruction
system.cpu02.op_class::SimdAddAcc                   0      0.00%     61.96% # Class of executed instruction
system.cpu02.op_class::SimdAlu                      0      0.00%     61.96% # Class of executed instruction
system.cpu02.op_class::SimdCmp                      0      0.00%     61.96% # Class of executed instruction
system.cpu02.op_class::SimdCvt                      0      0.00%     61.96% # Class of executed instruction
system.cpu02.op_class::SimdMisc                     0      0.00%     61.96% # Class of executed instruction
system.cpu02.op_class::SimdMult                     0      0.00%     61.96% # Class of executed instruction
system.cpu02.op_class::SimdMultAcc                  0      0.00%     61.96% # Class of executed instruction
system.cpu02.op_class::SimdShift                    0      0.00%     61.96% # Class of executed instruction
system.cpu02.op_class::SimdShiftAcc                 0      0.00%     61.96% # Class of executed instruction
system.cpu02.op_class::SimdSqrt                     0      0.00%     61.96% # Class of executed instruction
system.cpu02.op_class::SimdFloatAdd                 0      0.00%     61.96% # Class of executed instruction
system.cpu02.op_class::SimdFloatAlu                 0      0.00%     61.96% # Class of executed instruction
system.cpu02.op_class::SimdFloatCmp                 0      0.00%     61.96% # Class of executed instruction
system.cpu02.op_class::SimdFloatCvt                 0      0.00%     61.96% # Class of executed instruction
system.cpu02.op_class::SimdFloatDiv                 0      0.00%     61.96% # Class of executed instruction
system.cpu02.op_class::SimdFloatMisc                0      0.00%     61.96% # Class of executed instruction
system.cpu02.op_class::SimdFloatMult                0      0.00%     61.96% # Class of executed instruction
system.cpu02.op_class::SimdFloatMultAcc             0      0.00%     61.96% # Class of executed instruction
system.cpu02.op_class::SimdFloatSqrt                0      0.00%     61.96% # Class of executed instruction
system.cpu02.op_class::SimdAes                      0      0.00%     61.96% # Class of executed instruction
system.cpu02.op_class::SimdAesMix                   0      0.00%     61.96% # Class of executed instruction
system.cpu02.op_class::SimdSha1Hash                 0      0.00%     61.96% # Class of executed instruction
system.cpu02.op_class::SimdSha1Hash2                0      0.00%     61.96% # Class of executed instruction
system.cpu02.op_class::SimdSha256Hash               0      0.00%     61.96% # Class of executed instruction
system.cpu02.op_class::SimdSha256Hash2              0      0.00%     61.96% # Class of executed instruction
system.cpu02.op_class::SimdShaSigma2                0      0.00%     61.96% # Class of executed instruction
system.cpu02.op_class::SimdShaSigma3                0      0.00%     61.96% # Class of executed instruction
system.cpu02.op_class::MemRead                    296     22.98%     84.94% # Class of executed instruction
system.cpu02.op_class::MemWrite                   182     14.13%     99.07% # Class of executed instruction
system.cpu02.op_class::FloatMemRead                 0      0.00%     99.07% # Class of executed instruction
system.cpu02.op_class::FloatMemWrite               12      0.93%    100.00% # Class of executed instruction
system.cpu02.op_class::IprAccess                    0      0.00%    100.00% # Class of executed instruction
system.cpu02.op_class::InstPrefetch                 0      0.00%    100.00% # Class of executed instruction
system.cpu02.op_class::total                     1288                       # Class of executed instruction
system.cpu02.pwrStateClkGateDist::samples            1                       # Distribution of time spent in the clock gated state
system.cpu02.pwrStateClkGateDist::mean      168889500                       # Distribution of time spent in the clock gated state
system.cpu02.pwrStateClkGateDist::1000-5e+10            1    100.00%    100.00% # Distribution of time spent in the clock gated state
system.cpu02.pwrStateClkGateDist::min_value    168889500                       # Distribution of time spent in the clock gated state
system.cpu02.pwrStateClkGateDist::max_value    168889500                       # Distribution of time spent in the clock gated state
system.cpu02.pwrStateClkGateDist::total             1                       # Distribution of time spent in the clock gated state
system.cpu02.pwrStateResidencyTicks::ON     631866500                       # Cumulative time (in ticks) in various power states
system.cpu02.pwrStateResidencyTicks::CLK_GATED    168889500                       # Cumulative time (in ticks) in various power states
system.cpu03.Branches                             246                       # Number of branches fetched
system.cpu03.committedInsts                      1260                       # Number of instructions committed
system.cpu03.committedOps                        1266                       # Number of ops (including micro ops) committed
system.cpu03.dtb.accesses                           0                       # DTB accesses
system.cpu03.dtb.hits                               0                       # DTB hits
system.cpu03.dtb.misses                             0                       # DTB misses
system.cpu03.dtb.pwrStateResidencyTicks::UNDEFINED    800756000                       # Cumulative time (in ticks) in various power states
system.cpu03.dtb.read_accesses                      0                       # DTB read accesses
system.cpu03.dtb.read_hits                          0                       # DTB read hits
system.cpu03.dtb.read_misses                        0                       # DTB read misses
system.cpu03.dtb.write_accesses                     0                       # DTB write accesses
system.cpu03.dtb.write_hits                         0                       # DTB write hits
system.cpu03.dtb.write_misses                       0                       # DTB write misses
system.cpu03.idle_fraction                   0.982183                       # Percentage of idle cycles
system.cpu03.itb.accesses                           0                       # DTB accesses
system.cpu03.itb.hits                               0                       # DTB hits
system.cpu03.itb.misses                             0                       # DTB misses
system.cpu03.itb.pwrStateResidencyTicks::UNDEFINED    800756000                       # Cumulative time (in ticks) in various power states
system.cpu03.itb.read_accesses                      0                       # DTB read accesses
system.cpu03.itb.read_hits                          0                       # DTB read hits
system.cpu03.itb.read_misses                        0                       # DTB read misses
system.cpu03.itb.write_accesses                     0                       # DTB write accesses
system.cpu03.itb.write_hits                         0                       # DTB write hits
system.cpu03.itb.write_misses                       0                       # DTB write misses
system.cpu03.not_idle_fraction               0.017817                       # Percentage of non-idle cycles
system.cpu03.numCycles                        1601435                       # number of cpu cycles simulated
system.cpu03.numPwrStateTransitions                 2                       # Number of power state transitions
system.cpu03.numWorkItemsCompleted                  0                       # number of work items this cpu completed
system.cpu03.numWorkItemsStarted                    0                       # number of work items this cpu started
system.cpu03.num_busy_cycles             28532.630062                       # Number of busy cycles
system.cpu03.num_conditional_control_insts          126                       # number of instructions that are conditional controls
system.cpu03.num_fp_alu_accesses                   12                       # Number of float alu accesses
system.cpu03.num_fp_insts                          12                       # number of float instructions
system.cpu03.num_fp_register_reads                 12                       # number of times the floating registers were read
system.cpu03.num_fp_register_writes                 0                       # number of times the floating registers were written
system.cpu03.num_func_calls                       120                       # number of times a function call or return occured
system.cpu03.num_idle_cycles             1572902.369938                       # Number of idle cycles
system.cpu03.num_int_alu_accesses                1236                       # Number of integer alu accesses
system.cpu03.num_int_insts                       1236                       # number of integer instructions
system.cpu03.num_int_register_reads              1443                       # number of times the integer registers were read
system.cpu03.num_int_register_writes              874                       # number of times the integer registers were written
system.cpu03.num_load_insts                       289                       # Number of load instructions
system.cpu03.num_mem_refs                         484                       # number of memory refs
system.cpu03.num_store_insts                      195                       # Number of store instructions
system.cpu03.num_vec_alu_accesses                   0                       # Number of vector alu accesses
system.cpu03.num_vec_insts                          0                       # number of vector instructions
system.cpu03.num_vec_register_reads                 0                       # number of times the vector registers were read
system.cpu03.num_vec_register_writes                0                       # number of times the vector registers were written
system.cpu03.op_class::No_OpClass                  10      0.79%      0.79% # Class of executed instruction
system.cpu03.op_class::IntAlu                     771     60.80%     61.59% # Class of executed instruction
system.cpu03.op_class::IntMult                      1      0.08%     61.67% # Class of executed instruction
system.cpu03.op_class::IntDiv                       2      0.16%     61.83% # Class of executed instruction
system.cpu03.op_class::FloatAdd                     0      0.00%     61.83% # Class of executed instruction
system.cpu03.op_class::FloatCmp                     0      0.00%     61.83% # Class of executed instruction
system.cpu03.op_class::FloatCvt                     0      0.00%     61.83% # Class of executed instruction
system.cpu03.op_class::FloatMult                    0      0.00%     61.83% # Class of executed instruction
system.cpu03.op_class::FloatMultAcc                 0      0.00%     61.83% # Class of executed instruction
system.cpu03.op_class::FloatDiv                     0      0.00%     61.83% # Class of executed instruction
system.cpu03.op_class::FloatMisc                    0      0.00%     61.83% # Class of executed instruction
system.cpu03.op_class::FloatSqrt                    0      0.00%     61.83% # Class of executed instruction
system.cpu03.op_class::SimdAdd                      0      0.00%     61.83% # Class of executed instruction
system.cpu03.op_class::SimdAddAcc                   0      0.00%     61.83% # Class of executed instruction
system.cpu03.op_class::SimdAlu                      0      0.00%     61.83% # Class of executed instruction
system.cpu03.op_class::SimdCmp                      0      0.00%     61.83% # Class of executed instruction
system.cpu03.op_class::SimdCvt                      0      0.00%     61.83% # Class of executed instruction
system.cpu03.op_class::SimdMisc                     0      0.00%     61.83% # Class of executed instruction
system.cpu03.op_class::SimdMult                     0      0.00%     61.83% # Class of executed instruction
system.cpu03.op_class::SimdMultAcc                  0      0.00%     61.83% # Class of executed instruction
system.cpu03.op_class::SimdShift                    0      0.00%     61.83% # Class of executed instruction
system.cpu03.op_class::SimdShiftAcc                 0      0.00%     61.83% # Class of executed instruction
system.cpu03.op_class::SimdSqrt                     0      0.00%     61.83% # Class of executed instruction
system.cpu03.op_class::SimdFloatAdd                 0      0.00%     61.83% # Class of executed instruction
system.cpu03.op_class::SimdFloatAlu                 0      0.00%     61.83% # Class of executed instruction
system.cpu03.op_class::SimdFloatCmp                 0      0.00%     61.83% # Class of executed instruction
system.cpu03.op_class::SimdFloatCvt                 0      0.00%     61.83% # Class of executed instruction
system.cpu03.op_class::SimdFloatDiv                 0      0.00%     61.83% # Class of executed instruction
system.cpu03.op_class::SimdFloatMisc                0      0.00%     61.83% # Class of executed instruction
system.cpu03.op_class::SimdFloatMult                0      0.00%     61.83% # Class of executed instruction
system.cpu03.op_class::SimdFloatMultAcc             0      0.00%     61.83% # Class of executed instruction
system.cpu03.op_class::SimdFloatSqrt                0      0.00%     61.83% # Class of executed instruction
system.cpu03.op_class::SimdAes                      0      0.00%     61.83% # Class of executed instruction
system.cpu03.op_class::SimdAesMix                   0      0.00%     61.83% # Class of executed instruction
system.cpu03.op_class::SimdSha1Hash                 0      0.00%     61.83% # Class of executed instruction
system.cpu03.op_class::SimdSha1Hash2                0      0.00%     61.83% # Class of executed instruction
system.cpu03.op_class::SimdSha256Hash               0      0.00%     61.83% # Class of executed instruction
system.cpu03.op_class::SimdSha256Hash2              0      0.00%     61.83% # Class of executed instruction
system.cpu03.op_class::SimdShaSigma2                0      0.00%     61.83% # Class of executed instruction
system.cpu03.op_class::SimdShaSigma3                0      0.00%     61.83% # Class of executed instruction
system.cpu03.op_class::MemRead                    293     23.11%     84.94% # Class of executed instruction
system.cpu03.op_class::MemWrite                   179     14.12%     99.05% # Class of executed instruction
system.cpu03.op_class::FloatMemRead                 0      0.00%     99.05% # Class of executed instruction
system.cpu03.op_class::FloatMemWrite               12      0.95%    100.00% # Class of executed instruction
system.cpu03.op_class::IprAccess                    0      0.00%    100.00% # Class of executed instruction
system.cpu03.op_class::InstPrefetch                 0      0.00%    100.00% # Class of executed instruction
system.cpu03.op_class::total                     1268                       # Class of executed instruction
system.cpu03.pwrStateClkGateDist::samples            1                       # Distribution of time spent in the clock gated state
system.cpu03.pwrStateClkGateDist::mean      154793000                       # Distribution of time spent in the clock gated state
system.cpu03.pwrStateClkGateDist::1000-5e+10            1    100.00%    100.00% # Distribution of time spent in the clock gated state
system.cpu03.pwrStateClkGateDist::min_value    154793000                       # Distribution of time spent in the clock gated state
system.cpu03.pwrStateClkGateDist::max_value    154793000                       # Distribution of time spent in the clock gated state
system.cpu03.pwrStateClkGateDist::total             1                       # Distribution of time spent in the clock gated state
system.cpu03.pwrStateResidencyTicks::ON     645963000                       # Cumulative time (in ticks) in various power states
system.cpu03.pwrStateResidencyTicks::CLK_GATED    154793000                       # Cumulative time (in ticks) in various power states
system.cpu04.Branches                             236                       # Number of branches fetched
system.cpu04.committedInsts                      1208                       # Number of instructions committed
system.cpu04.committedOps                        1214                       # Number of ops (including micro ops) committed
system.cpu04.dtb.accesses                           0                       # DTB accesses
system.cpu04.dtb.hits                               0                       # DTB hits
system.cpu04.dtb.misses                             0                       # DTB misses
system.cpu04.dtb.pwrStateResidencyTicks::UNDEFINED    800756000                       # Cumulative time (in ticks) in various power states
system.cpu04.dtb.read_accesses                      0                       # DTB read accesses
system.cpu04.dtb.read_hits                          0                       # DTB read hits
system.cpu04.dtb.read_misses                        0                       # DTB read misses
system.cpu04.dtb.write_accesses                     0                       # DTB write accesses
system.cpu04.dtb.write_hits                         0                       # DTB write hits
system.cpu04.dtb.write_misses                       0                       # DTB write misses
system.cpu04.idle_fraction                   0.982230                       # Percentage of idle cycles
system.cpu04.itb.accesses                           0                       # DTB accesses
system.cpu04.itb.hits                               0                       # DTB hits
system.cpu04.itb.misses                             0                       # DTB misses
system.cpu04.itb.pwrStateResidencyTicks::UNDEFINED    800756000                       # Cumulative time (in ticks) in various power states
system.cpu04.itb.read_accesses                      0                       # DTB read accesses
system.cpu04.itb.read_hits                          0                       # DTB read hits
system.cpu04.itb.read_misses                        0                       # DTB read misses
system.cpu04.itb.write_accesses                     0                       # DTB write accesses
system.cpu04.itb.write_hits                         0                       # DTB write hits
system.cpu04.itb.write_misses                       0                       # DTB write misses
system.cpu04.not_idle_fraction               0.017770                       # Percentage of non-idle cycles
system.cpu04.numCycles                        1601482                       # number of cpu cycles simulated
system.cpu04.numPwrStateTransitions                 2                       # Number of power state transitions
system.cpu04.numWorkItemsCompleted                  0                       # number of work items this cpu completed
system.cpu04.numWorkItemsStarted                    0                       # number of work items this cpu started
system.cpu04.num_busy_cycles             28458.468862                       # Number of busy cycles
system.cpu04.num_conditional_control_insts          122                       # number of instructions that are conditional controls
system.cpu04.num_fp_alu_accesses                   12                       # Number of float alu accesses
system.cpu04.num_fp_insts                          12                       # number of float instructions
system.cpu04.num_fp_register_reads                 12                       # number of times the floating registers were read
system.cpu04.num_fp_register_writes                 0                       # number of times the floating registers were written
system.cpu04.num_func_calls                       114                       # number of times a function call or return occured
system.cpu04.num_idle_cycles             1573023.531138                       # Number of idle cycles
system.cpu04.num_int_alu_accesses                1186                       # Number of integer alu accesses
system.cpu04.num_int_insts                       1186                       # number of integer instructions
system.cpu04.num_int_register_reads              1384                       # number of times the integer registers were read
system.cpu04.num_int_register_writes              835                       # number of times the integer registers were written
system.cpu04.num_load_insts                       274                       # Number of load instructions
system.cpu04.num_mem_refs                         464                       # number of memory refs
system.cpu04.num_store_insts                      190                       # Number of store instructions
system.cpu04.num_vec_alu_accesses                   0                       # Number of vector alu accesses
system.cpu04.num_vec_insts                          0                       # number of vector instructions
system.cpu04.num_vec_register_reads                 0                       # number of times the vector registers were read
system.cpu04.num_vec_register_writes                0                       # number of times the vector registers were written
system.cpu04.op_class::No_OpClass                  10      0.82%      0.82% # Class of executed instruction
system.cpu04.op_class::IntAlu                     739     60.77%     61.60% # Class of executed instruction
system.cpu04.op_class::IntMult                      1      0.08%     61.68% # Class of executed instruction
system.cpu04.op_class::IntDiv                       2      0.16%     61.84% # Class of executed instruction
system.cpu04.op_class::FloatAdd                     0      0.00%     61.84% # Class of executed instruction
system.cpu04.op_class::FloatCmp                     0      0.00%     61.84% # Class of executed instruction
system.cpu04.op_class::FloatCvt                     0      0.00%     61.84% # Class of executed instruction
system.cpu04.op_class::FloatMult                    0      0.00%     61.84% # Class of executed instruction
system.cpu04.op_class::FloatMultAcc                 0      0.00%     61.84% # Class of executed instruction
system.cpu04.op_class::FloatDiv                     0      0.00%     61.84% # Class of executed instruction
system.cpu04.op_class::FloatMisc                    0      0.00%     61.84% # Class of executed instruction
system.cpu04.op_class::FloatSqrt                    0      0.00%     61.84% # Class of executed instruction
system.cpu04.op_class::SimdAdd                      0      0.00%     61.84% # Class of executed instruction
system.cpu04.op_class::SimdAddAcc                   0      0.00%     61.84% # Class of executed instruction
system.cpu04.op_class::SimdAlu                      0      0.00%     61.84% # Class of executed instruction
system.cpu04.op_class::SimdCmp                      0      0.00%     61.84% # Class of executed instruction
system.cpu04.op_class::SimdCvt                      0      0.00%     61.84% # Class of executed instruction
system.cpu04.op_class::SimdMisc                     0      0.00%     61.84% # Class of executed instruction
system.cpu04.op_class::SimdMult                     0      0.00%     61.84% # Class of executed instruction
system.cpu04.op_class::SimdMultAcc                  0      0.00%     61.84% # Class of executed instruction
system.cpu04.op_class::SimdShift                    0      0.00%     61.84% # Class of executed instruction
system.cpu04.op_class::SimdShiftAcc                 0      0.00%     61.84% # Class of executed instruction
system.cpu04.op_class::SimdSqrt                     0      0.00%     61.84% # Class of executed instruction
system.cpu04.op_class::SimdFloatAdd                 0      0.00%     61.84% # Class of executed instruction
system.cpu04.op_class::SimdFloatAlu                 0      0.00%     61.84% # Class of executed instruction
system.cpu04.op_class::SimdFloatCmp                 0      0.00%     61.84% # Class of executed instruction
system.cpu04.op_class::SimdFloatCvt                 0      0.00%     61.84% # Class of executed instruction
system.cpu04.op_class::SimdFloatDiv                 0      0.00%     61.84% # Class of executed instruction
system.cpu04.op_class::SimdFloatMisc                0      0.00%     61.84% # Class of executed instruction
system.cpu04.op_class::SimdFloatMult                0      0.00%     61.84% # Class of executed instruction
system.cpu04.op_class::SimdFloatMultAcc             0      0.00%     61.84% # Class of executed instruction
system.cpu04.op_class::SimdFloatSqrt                0      0.00%     61.84% # Class of executed instruction
system.cpu04.op_class::SimdAes                      0      0.00%     61.84% # Class of executed instruction
system.cpu04.op_class::SimdAesMix                   0      0.00%     61.84% # Class of executed instruction
system.cpu04.op_class::SimdSha1Hash                 0      0.00%     61.84% # Class of executed instruction
system.cpu04.op_class::SimdSha1Hash2                0      0.00%     61.84% # Class of executed instruction
system.cpu04.op_class::SimdSha256Hash               0      0.00%     61.84% # Class of executed instruction
system.cpu04.op_class::SimdSha256Hash2              0      0.00%     61.84% # Class of executed instruction
system.cpu04.op_class::SimdShaSigma2                0      0.00%     61.84% # Class of executed instruction
system.cpu04.op_class::SimdShaSigma3                0      0.00%     61.84% # Class of executed instruction
system.cpu04.op_class::MemRead                    278     22.86%     84.70% # Class of executed instruction
system.cpu04.op_class::MemWrite                   174     14.31%     99.01% # Class of executed instruction
system.cpu04.op_class::FloatMemRead                 0      0.00%     99.01% # Class of executed instruction
system.cpu04.op_class::FloatMemWrite               12      0.99%    100.00% # Class of executed instruction
system.cpu04.op_class::IprAccess                    0      0.00%    100.00% # Class of executed instruction
system.cpu04.op_class::InstPrefetch                 0      0.00%    100.00% # Class of executed instruction
system.cpu04.op_class::total                     1216                       # Class of executed instruction
system.cpu04.pwrStateClkGateDist::samples            1                       # Distribution of time spent in the clock gated state
system.cpu04.pwrStateClkGateDist::mean      141691500                       # Distribution of time spent in the clock gated state
system.cpu04.pwrStateClkGateDist::1000-5e+10            1    100.00%    100.00% # Distribution of time spent in the clock gated state
system.cpu04.pwrStateClkGateDist::min_value    141691500                       # Distribution of time spent in the clock gated state
system.cpu04.pwrStateClkGateDist::max_value    141691500                       # Distribution of time spent in the clock gated state
system.cpu04.pwrStateClkGateDist::total             1                       # Distribution of time spent in the clock gated state
system.cpu04.pwrStateResidencyTicks::ON     659064500                       # Cumulative time (in ticks) in various power states
system.cpu04.pwrStateResidencyTicks::CLK_GATED    141691500                       # Cumulative time (in ticks) in various power states
system.cpu05.Branches                             246                       # Number of branches fetched
system.cpu05.committedInsts                      1264                       # Number of instructions committed
system.cpu05.committedOps                        1270                       # Number of ops (including micro ops) committed
system.cpu05.dtb.accesses                           0                       # DTB accesses
system.cpu05.dtb.hits                               0                       # DTB hits
system.cpu05.dtb.misses                             0                       # DTB misses
system.cpu05.dtb.pwrStateResidencyTicks::UNDEFINED    800756000                       # Cumulative time (in ticks) in various power states
system.cpu05.dtb.read_accesses                      0                       # DTB read accesses
system.cpu05.dtb.read_hits                          0                       # DTB read hits
system.cpu05.dtb.read_misses                        0                       # DTB read misses
system.cpu05.dtb.write_accesses                     0                       # DTB write accesses
system.cpu05.dtb.write_hits                         0                       # DTB write hits
system.cpu05.dtb.write_misses                       0                       # DTB write misses
system.cpu05.idle_fraction                   0.982848                       # Percentage of idle cycles
system.cpu05.itb.accesses                           0                       # DTB accesses
system.cpu05.itb.hits                               0                       # DTB hits
system.cpu05.itb.misses                             0                       # DTB misses
system.cpu05.itb.pwrStateResidencyTicks::UNDEFINED    800756000                       # Cumulative time (in ticks) in various power states
system.cpu05.itb.read_accesses                      0                       # DTB read accesses
system.cpu05.itb.read_hits                          0                       # DTB read hits
system.cpu05.itb.read_misses                        0                       # DTB read misses
system.cpu05.itb.write_accesses                     0                       # DTB write accesses
system.cpu05.itb.write_hits                         0                       # DTB write hits
system.cpu05.itb.write_misses                       0                       # DTB write misses
system.cpu05.not_idle_fraction               0.017152                       # Percentage of non-idle cycles
system.cpu05.numCycles                        1601330                       # number of cpu cycles simulated
system.cpu05.numPwrStateTransitions                 2                       # Number of power state transitions
system.cpu05.numWorkItemsCompleted                  0                       # number of work items this cpu completed
system.cpu05.numWorkItemsStarted                    0                       # number of work items this cpu started
system.cpu05.num_busy_cycles             27465.880317                       # Number of busy cycles
system.cpu05.num_conditional_control_insts          128                       # number of instructions that are conditional controls
system.cpu05.num_fp_alu_accesses                   12                       # Number of float alu accesses
system.cpu05.num_fp_insts                          12                       # number of float instructions
system.cpu05.num_fp_register_reads                 12                       # number of times the floating registers were read
system.cpu05.num_fp_register_writes                 0                       # number of times the floating registers were written
system.cpu05.num_func_calls                       118                       # number of times a function call or return occured
system.cpu05.num_idle_cycles             1573864.119683                       # Number of idle cycles
system.cpu05.num_int_alu_accesses                1242                       # Number of integer alu accesses
system.cpu05.num_int_insts                       1242                       # number of integer instructions
system.cpu05.num_int_register_reads              1448                       # number of times the integer registers were read
system.cpu05.num_int_register_writes              877                       # number of times the integer registers were written
system.cpu05.num_load_insts                       288                       # Number of load instructions
system.cpu05.num_mem_refs                         484                       # number of memory refs
system.cpu05.num_store_insts                      196                       # Number of store instructions
system.cpu05.num_vec_alu_accesses                   0                       # Number of vector alu accesses
system.cpu05.num_vec_insts                          0                       # number of vector instructions
system.cpu05.num_vec_register_reads                 0                       # number of times the vector registers were read
system.cpu05.num_vec_register_writes                0                       # number of times the vector registers were written
system.cpu05.op_class::No_OpClass                  10      0.79%      0.79% # Class of executed instruction
system.cpu05.op_class::IntAlu                     775     60.93%     61.71% # Class of executed instruction
system.cpu05.op_class::IntMult                      1      0.08%     61.79% # Class of executed instruction
system.cpu05.op_class::IntDiv                       2      0.16%     61.95% # Class of executed instruction
system.cpu05.op_class::FloatAdd                     0      0.00%     61.95% # Class of executed instruction
system.cpu05.op_class::FloatCmp                     0      0.00%     61.95% # Class of executed instruction
system.cpu05.op_class::FloatCvt                     0      0.00%     61.95% # Class of executed instruction
system.cpu05.op_class::FloatMult                    0      0.00%     61.95% # Class of executed instruction
system.cpu05.op_class::FloatMultAcc                 0      0.00%     61.95% # Class of executed instruction
system.cpu05.op_class::FloatDiv                     0      0.00%     61.95% # Class of executed instruction
system.cpu05.op_class::FloatMisc                    0      0.00%     61.95% # Class of executed instruction
system.cpu05.op_class::FloatSqrt                    0      0.00%     61.95% # Class of executed instruction
system.cpu05.op_class::SimdAdd                      0      0.00%     61.95% # Class of executed instruction
system.cpu05.op_class::SimdAddAcc                   0      0.00%     61.95% # Class of executed instruction
system.cpu05.op_class::SimdAlu                      0      0.00%     61.95% # Class of executed instruction
system.cpu05.op_class::SimdCmp                      0      0.00%     61.95% # Class of executed instruction
system.cpu05.op_class::SimdCvt                      0      0.00%     61.95% # Class of executed instruction
system.cpu05.op_class::SimdMisc                     0      0.00%     61.95% # Class of executed instruction
system.cpu05.op_class::SimdMult                     0      0.00%     61.95% # Class of executed instruction
system.cpu05.op_class::SimdMultAcc                  0      0.00%     61.95% # Class of executed instruction
system.cpu05.op_class::SimdShift                    0      0.00%     61.95% # Class of executed instruction
system.cpu05.op_class::SimdShiftAcc                 0      0.00%     61.95% # Class of executed instruction
system.cpu05.op_class::SimdSqrt                     0      0.00%     61.95% # Class of executed instruction
system.cpu05.op_class::SimdFloatAdd                 0      0.00%     61.95% # Class of executed instruction
system.cpu05.op_class::SimdFloatAlu                 0      0.00%     61.95% # Class of executed instruction
system.cpu05.op_class::SimdFloatCmp                 0      0.00%     61.95% # Class of executed instruction
system.cpu05.op_class::SimdFloatCvt                 0      0.00%     61.95% # Class of executed instruction
system.cpu05.op_class::SimdFloatDiv                 0      0.00%     61.95% # Class of executed instruction
system.cpu05.op_class::SimdFloatMisc                0      0.00%     61.95% # Class of executed instruction
system.cpu05.op_class::SimdFloatMult                0      0.00%     61.95% # Class of executed instruction
system.cpu05.op_class::SimdFloatMultAcc             0      0.00%     61.95% # Class of executed instruction
system.cpu05.op_class::SimdFloatSqrt                0      0.00%     61.95% # Class of executed instruction
system.cpu05.op_class::SimdAes                      0      0.00%     61.95% # Class of executed instruction
system.cpu05.op_class::SimdAesMix                   0      0.00%     61.95% # Class of executed instruction
system.cpu05.op_class::SimdSha1Hash                 0      0.00%     61.95% # Class of executed instruction
system.cpu05.op_class::SimdSha1Hash2                0      0.00%     61.95% # Class of executed instruction
system.cpu05.op_class::SimdSha256Hash               0      0.00%     61.95% # Class of executed instruction
system.cpu05.op_class::SimdSha256Hash2              0      0.00%     61.95% # Class of executed instruction
system.cpu05.op_class::SimdShaSigma2                0      0.00%     61.95% # Class of executed instruction
system.cpu05.op_class::SimdShaSigma3                0      0.00%     61.95% # Class of executed instruction
system.cpu05.op_class::MemRead                    292     22.96%     84.91% # Class of executed instruction
system.cpu05.op_class::MemWrite                   180     14.15%     99.06% # Class of executed instruction
system.cpu05.op_class::FloatMemRead                 0      0.00%     99.06% # Class of executed instruction
system.cpu05.op_class::FloatMemWrite               12      0.94%    100.00% # Class of executed instruction
system.cpu05.op_class::IprAccess                    0      0.00%    100.00% # Class of executed instruction
system.cpu05.op_class::InstPrefetch                 0      0.00%    100.00% # Class of executed instruction
system.cpu05.op_class::total                     1272                       # Class of executed instruction
system.cpu05.pwrStateClkGateDist::samples            1                       # Distribution of time spent in the clock gated state
system.cpu05.pwrStateClkGateDist::mean      129327000                       # Distribution of time spent in the clock gated state
system.cpu05.pwrStateClkGateDist::1000-5e+10            1    100.00%    100.00% # Distribution of time spent in the clock gated state
system.cpu05.pwrStateClkGateDist::min_value    129327000                       # Distribution of time spent in the clock gated state
system.cpu05.pwrStateClkGateDist::max_value    129327000                       # Distribution of time spent in the clock gated state
system.cpu05.pwrStateClkGateDist::total             1                       # Distribution of time spent in the clock gated state
system.cpu05.pwrStateResidencyTicks::ON     671429000                       # Cumulative time (in ticks) in various power states
system.cpu05.pwrStateResidencyTicks::CLK_GATED    129327000                       # Cumulative time (in ticks) in various power states
system.cpu06.Branches                             251                       # Number of branches fetched
system.cpu06.committedInsts                      1288                       # Number of instructions committed
system.cpu06.committedOps                        1294                       # Number of ops (including micro ops) committed
system.cpu06.dtb.accesses                           0                       # DTB accesses
system.cpu06.dtb.hits                               0                       # DTB hits
system.cpu06.dtb.misses                             0                       # DTB misses
system.cpu06.dtb.pwrStateResidencyTicks::UNDEFINED    800756000                       # Cumulative time (in ticks) in various power states
system.cpu06.dtb.read_accesses                      0                       # DTB read accesses
system.cpu06.dtb.read_hits                          0                       # DTB read hits
system.cpu06.dtb.read_misses                        0                       # DTB read misses
system.cpu06.dtb.write_accesses                     0                       # DTB write accesses
system.cpu06.dtb.write_hits                         0                       # DTB write hits
system.cpu06.dtb.write_misses                       0                       # DTB write misses
system.cpu06.idle_fraction                   0.982114                       # Percentage of idle cycles
system.cpu06.itb.accesses                           0                       # DTB accesses
system.cpu06.itb.hits                               0                       # DTB hits
system.cpu06.itb.misses                             0                       # DTB misses
system.cpu06.itb.pwrStateResidencyTicks::UNDEFINED    800756000                       # Cumulative time (in ticks) in various power states
system.cpu06.itb.read_accesses                      0                       # DTB read accesses
system.cpu06.itb.read_hits                          0                       # DTB read hits
system.cpu06.itb.read_misses                        0                       # DTB read misses
system.cpu06.itb.write_accesses                     0                       # DTB write accesses
system.cpu06.itb.write_hits                         0                       # DTB write hits
system.cpu06.itb.write_misses                       0                       # DTB write misses
system.cpu06.not_idle_fraction               0.017886                       # Percentage of non-idle cycles
system.cpu06.numCycles                        1601438                       # number of cpu cycles simulated
system.cpu06.numPwrStateTransitions                 2                       # Number of power state transitions
system.cpu06.numWorkItemsCompleted                  0                       # number of work items this cpu completed
system.cpu06.numWorkItemsStarted                    0                       # number of work items this cpu started
system.cpu06.num_busy_cycles             28642.678430                       # Number of busy cycles
system.cpu06.num_conditional_control_insts          129                       # number of instructions that are conditional controls
system.cpu06.num_fp_alu_accesses                   12                       # Number of float alu accesses
system.cpu06.num_fp_insts                          12                       # number of float instructions
system.cpu06.num_fp_register_reads                 12                       # number of times the floating registers were read
system.cpu06.num_fp_register_writes                 0                       # number of times the floating registers were written
system.cpu06.num_func_calls                       122                       # number of times a function call or return occured
system.cpu06.num_idle_cycles             1572795.321570                       # Number of idle cycles
system.cpu06.num_int_alu_accesses                1264                       # Number of integer alu accesses
system.cpu06.num_int_insts                       1264                       # number of integer instructions
system.cpu06.num_int_register_reads              1475                       # number of times the integer registers were read
system.cpu06.num_int_register_writes              895                       # number of times the integer registers were written
system.cpu06.num_load_insts                       296                       # Number of load instructions
system.cpu06.num_mem_refs                         494                       # number of memory refs
system.cpu06.num_store_insts                      198                       # Number of store instructions
system.cpu06.num_vec_alu_accesses                   0                       # Number of vector alu accesses
system.cpu06.num_vec_insts                          0                       # number of vector instructions
system.cpu06.num_vec_register_reads                 0                       # number of times the vector registers were read
system.cpu06.num_vec_register_writes                0                       # number of times the vector registers were written
system.cpu06.op_class::No_OpClass                  10      0.77%      0.77% # Class of executed instruction
system.cpu06.op_class::IntAlu                     789     60.88%     61.65% # Class of executed instruction
system.cpu06.op_class::IntMult                      1      0.08%     61.73% # Class of executed instruction
system.cpu06.op_class::IntDiv                       2      0.15%     61.88% # Class of executed instruction
system.cpu06.op_class::FloatAdd                     0      0.00%     61.88% # Class of executed instruction
system.cpu06.op_class::FloatCmp                     0      0.00%     61.88% # Class of executed instruction
system.cpu06.op_class::FloatCvt                     0      0.00%     61.88% # Class of executed instruction
system.cpu06.op_class::FloatMult                    0      0.00%     61.88% # Class of executed instruction
system.cpu06.op_class::FloatMultAcc                 0      0.00%     61.88% # Class of executed instruction
system.cpu06.op_class::FloatDiv                     0      0.00%     61.88% # Class of executed instruction
system.cpu06.op_class::FloatMisc                    0      0.00%     61.88% # Class of executed instruction
system.cpu06.op_class::FloatSqrt                    0      0.00%     61.88% # Class of executed instruction
system.cpu06.op_class::SimdAdd                      0      0.00%     61.88% # Class of executed instruction
system.cpu06.op_class::SimdAddAcc                   0      0.00%     61.88% # Class of executed instruction
system.cpu06.op_class::SimdAlu                      0      0.00%     61.88% # Class of executed instruction
system.cpu06.op_class::SimdCmp                      0      0.00%     61.88% # Class of executed instruction
system.cpu06.op_class::SimdCvt                      0      0.00%     61.88% # Class of executed instruction
system.cpu06.op_class::SimdMisc                     0      0.00%     61.88% # Class of executed instruction
system.cpu06.op_class::SimdMult                     0      0.00%     61.88% # Class of executed instruction
system.cpu06.op_class::SimdMultAcc                  0      0.00%     61.88% # Class of executed instruction
system.cpu06.op_class::SimdShift                    0      0.00%     61.88% # Class of executed instruction
system.cpu06.op_class::SimdShiftAcc                 0      0.00%     61.88% # Class of executed instruction
system.cpu06.op_class::SimdSqrt                     0      0.00%     61.88% # Class of executed instruction
system.cpu06.op_class::SimdFloatAdd                 0      0.00%     61.88% # Class of executed instruction
system.cpu06.op_class::SimdFloatAlu                 0      0.00%     61.88% # Class of executed instruction
system.cpu06.op_class::SimdFloatCmp                 0      0.00%     61.88% # Class of executed instruction
system.cpu06.op_class::SimdFloatCvt                 0      0.00%     61.88% # Class of executed instruction
system.cpu06.op_class::SimdFloatDiv                 0      0.00%     61.88% # Class of executed instruction
system.cpu06.op_class::SimdFloatMisc                0      0.00%     61.88% # Class of executed instruction
system.cpu06.op_class::SimdFloatMult                0      0.00%     61.88% # Class of executed instruction
system.cpu06.op_class::SimdFloatMultAcc             0      0.00%     61.88% # Class of executed instruction
system.cpu06.op_class::SimdFloatSqrt                0      0.00%     61.88% # Class of executed instruction
system.cpu06.op_class::SimdAes                      0      0.00%     61.88% # Class of executed instruction
system.cpu06.op_class::SimdAesMix                   0      0.00%     61.88% # Class of executed instruction
system.cpu06.op_class::SimdSha1Hash                 0      0.00%     61.88% # Class of executed instruction
system.cpu06.op_class::SimdSha1Hash2                0      0.00%     61.88% # Class of executed instruction
system.cpu06.op_class::SimdSha256Hash               0      0.00%     61.88% # Class of executed instruction
system.cpu06.op_class::SimdSha256Hash2              0      0.00%     61.88% # Class of executed instruction
system.cpu06.op_class::SimdShaSigma2                0      0.00%     61.88% # Class of executed instruction
system.cpu06.op_class::SimdShaSigma3                0      0.00%     61.88% # Class of executed instruction
system.cpu06.op_class::MemRead                    300     23.15%     85.03% # Class of executed instruction
system.cpu06.op_class::MemWrite                   182     14.04%     99.07% # Class of executed instruction
system.cpu06.op_class::FloatMemRead                 0      0.00%     99.07% # Class of executed instruction
system.cpu06.op_class::FloatMemWrite               12      0.93%    100.00% # Class of executed instruction
system.cpu06.op_class::IprAccess                    0      0.00%    100.00% # Class of executed instruction
system.cpu06.op_class::InstPrefetch                 0      0.00%    100.00% # Class of executed instruction
system.cpu06.op_class::total                     1296                       # Class of executed instruction
system.cpu06.pwrStateClkGateDist::samples            1                       # Distribution of time spent in the clock gated state
system.cpu06.pwrStateClkGateDist::mean      116212000                       # Distribution of time spent in the clock gated state
system.cpu06.pwrStateClkGateDist::1000-5e+10            1    100.00%    100.00% # Distribution of time spent in the clock gated state
system.cpu06.pwrStateClkGateDist::min_value    116212000                       # Distribution of time spent in the clock gated state
[...]
system.ruby.network.int_links39.credit_link.pwrStateResidencyTicks::UNDEFINED    800756000                       # Cumulative time (in ticks) in various power states
system.ruby.network.int_links39.network_link.pwrStateResidencyTicks::UNDEFINED    800756000                       # Cumulative time (in ticks) in various power states
system.ruby.network.int_links40.credit_link.pwrStateResidencyTicks::UNDEFINED    800756000                       # Cumulative time (in ticks) in various power states
system.ruby.network.int_links40.network_link.pwrStateResidencyTicks::UNDEFINED    800756000                       # Cumulative time (in ticks) in various power states
system.ruby.network.int_links41.credit_link.pwrStateResidencyTicks::UNDEFINED    800756000                       # Cumulative time (in ticks) in various power states
system.ruby.network.int_links41.network_link.pwrStateResidencyTicks::UNDEFINED    800756000                       # Cumulative time (in ticks) in various power states
system.ruby.network.int_links42.credit_link.pwrStateResidencyTicks::UNDEFINED    800756000                       # Cumulative time (in ticks) in various power states
system.ruby.network.int_links42.network_link.pwrStateResidencyTicks::UNDEFINED    800756000                       # Cumulative time (in ticks) in various power states
system.ruby.network.int_links43.credit_link.pwrStateResidencyTicks::UNDEFINED    800756000                       # Cumulative time (in ticks) in various power states
system.ruby.network.int_links43.network_link.pwrStateResidencyTicks::UNDEFINED    800756000                       # Cumulative time (in ticks) in various power states
system.ruby.network.int_links44.credit_link.pwrStateResidencyTicks::UNDEFINED    800756000                       # Cumulative time (in ticks) in various power states
system.ruby.network.int_links44.network_link.pwrStateResidencyTicks::UNDEFINED    800756000                       # Cumulative time (in ticks) in various power states
system.ruby.network.int_links45.credit_link.pwrStateResidencyTicks::UNDEFINED    800756000                       # Cumulative time (in ticks) in various power states
system.ruby.network.int_links45.network_link.pwrStateResidencyTicks::UNDEFINED    800756000                       # Cumulative time (in ticks) in various power states
system.ruby.network.int_links46.credit_link.pwrStateResidencyTicks::UNDEFINED    800756000                       # Cumulative time (in ticks) in various power states
system.ruby.network.int_links46.network_link.pwrStateResidencyTicks::UNDEFINED    800756000                       # Cumulative time (in ticks) in various power states
system.ruby.network.int_links47.credit_link.pwrStateResidencyTicks::UNDEFINED    800756000                       # Cumulative time (in ticks) in various power states
system.ruby.network.int_links47.network_link.pwrStateResidencyTicks::UNDEFINED    800756000                       # Cumulative time (in ticks) in various power states
system.ruby.network.netifs00.pwrStateResidencyTicks::UNDEFINED    800756000                       # Cumulative time (in ticks) in various power states
system.ruby.network.netifs01.pwrStateResidencyTicks::UNDEFINED    800756000                       # Cumulative time (in ticks) in various power states
system.ruby.network.netifs02.pwrStateResidencyTicks::UNDEFINED    800756000                       # Cumulative time (in ticks) in various power states
system.ruby.network.netifs03.pwrStateResidencyTicks::UNDEFINED    800756000                       # Cumulative time (in ticks) in various power states
system.ruby.network.netifs04.pwrStateResidencyTicks::UNDEFINED    800756000                       # Cumulative time (in ticks) in various power states
system.ruby.network.netifs05.pwrStateResidencyTicks::UNDEFINED    800756000                       # Cumulative time (in ticks) in various power states
system.ruby.network.netifs06.pwrStateResidencyTicks::UNDEFINED    800756000                       # Cumulative time (in ticks) in various power states
system.ruby.network.netifs07.pwrStateResidencyTicks::UNDEFINED    800756000                       # Cumulative time (in ticks) in various power states
system.ruby.network.netifs08.pwrStateResidencyTicks::UNDEFINED    800756000                       # Cumulative time (in ticks) in various power states
system.ruby.network.netifs09.pwrStateResidencyTicks::UNDEFINED    800756000                       # Cumulative time (in ticks) in various power states
system.ruby.network.netifs10.pwrStateResidencyTicks::UNDEFINED    800756000                       # Cumulative time (in ticks) in various power states
system.ruby.network.netifs11.pwrStateResidencyTicks::UNDEFINED    800756000                       # Cumulative time (in ticks) in various power states
system.ruby.network.netifs12.pwrStateResidencyTicks::UNDEFINED    800756000                       # Cumulative time (in ticks) in various power states
system.ruby.network.netifs13.pwrStateResidencyTicks::UNDEFINED    800756000                       # Cumulative time (in ticks) in various power states
system.ruby.network.netifs14.pwrStateResidencyTicks::UNDEFINED    800756000                       # Cumulative time (in ticks) in various power states
system.ruby.network.netifs15.pwrStateResidencyTicks::UNDEFINED    800756000                       # Cumulative time (in ticks) in various power states
system.ruby.network.netifs16.pwrStateResidencyTicks::UNDEFINED    800756000                       # Cumulative time (in ticks) in various power states
system.ruby.network.netifs17.pwrStateResidencyTicks::UNDEFINED    800756000                       # Cumulative time (in ticks) in various power states
system.ruby.network.netifs18.pwrStateResidencyTicks::UNDEFINED    800756000                       # Cumulative time (in ticks) in various power states
system.ruby.network.netifs19.pwrStateResidencyTicks::UNDEFINED    800756000                       # Cumulative time (in ticks) in various power states
system.ruby.network.netifs20.pwrStateResidencyTicks::UNDEFINED    800756000                       # Cumulative time (in ticks) in various power states
system.ruby.network.netifs21.pwrStateResidencyTicks::UNDEFINED    800756000                       # Cumulative time (in ticks) in various power states
system.ruby.network.netifs22.pwrStateResidencyTicks::UNDEFINED    800756000                       # Cumulative time (in ticks) in various power states
system.ruby.network.netifs23.pwrStateResidencyTicks::UNDEFINED    800756000                       # Cumulative time (in ticks) in various power states
system.ruby.network.netifs24.pwrStateResidencyTicks::UNDEFINED    800756000                       # Cumulative time (in ticks) in various power states
system.ruby.network.netifs25.pwrStateResidencyTicks::UNDEFINED    800756000                       # Cumulative time (in ticks) in various power states
system.ruby.network.netifs26.pwrStateResidencyTicks::UNDEFINED    800756000                       # Cumulative time (in ticks) in various power states
system.ruby.network.netifs27.pwrStateResidencyTicks::UNDEFINED    800756000                       # Cumulative time (in ticks) in various power states
system.ruby.network.netifs28.pwrStateResidencyTicks::UNDEFINED    800756000                       # Cumulative time (in ticks) in various power states
system.ruby.network.netifs29.pwrStateResidencyTicks::UNDEFINED    800756000                       # Cumulative time (in ticks) in various power states
system.ruby.network.netifs30.pwrStateResidencyTicks::UNDEFINED    800756000                       # Cumulative time (in ticks) in various power states
system.ruby.network.netifs31.pwrStateResidencyTicks::UNDEFINED    800756000                       # Cumulative time (in ticks) in various power states
system.ruby.network.netifs32.pwrStateResidencyTicks::UNDEFINED    800756000                       # Cumulative time (in ticks) in various power states
system.ruby.network.netifs33.pwrStateResidencyTicks::UNDEFINED    800756000                       # Cumulative time (in ticks) in various power states
system.ruby.network.netifs34.pwrStateResidencyTicks::UNDEFINED    800756000                       # Cumulative time (in ticks) in various power states
system.ruby.network.netifs35.pwrStateResidencyTicks::UNDEFINED    800756000                       # Cumulative time (in ticks) in various power states
system.ruby.network.packet_network_latency |      642083                       |     1000670                       |      240685                      
system.ruby.network.packet_queueing_latency |       51762                       |       49475                       |       10754                      
system.ruby.network.packets_injected     |       22984     34.16%     34.16% |       34099     50.68%     84.85% |       10196     15.15%    100.00%
system.ruby.network.packets_injected::total        67279                      
system.ruby.network.packets_received     |       22981     34.17%     34.17% |       34082     50.68%     84.85% |       10192     15.15%    100.00%
system.ruby.network.packets_received::total        67255                      
system.ruby.network.pwrStateResidencyTicks::UNDEFINED    800756000                       # Cumulative time (in ticks) in various power states
system.ruby.network.routers00.buffer_reads       109379                      
system.ruby.network.routers00.buffer_writes       109379                      
system.ruby.network.routers00.crossbar_activity       109377                      
system.ruby.network.routers00.pwrStateResidencyTicks::UNDEFINED    800756000                       # Cumulative time (in ticks) in various power states
system.ruby.network.routers00.sw_input_arbiter_activity       109570                      
system.ruby.network.routers00.sw_output_arbiter_activity       109377                      
system.ruby.network.routers01.buffer_reads        49152                      
system.ruby.network.routers01.buffer_writes        49152                      
system.ruby.network.routers01.crossbar_activity        49152                      
system.ruby.network.routers01.pwrStateResidencyTicks::UNDEFINED    800756000                       # Cumulative time (in ticks) in various power states
system.ruby.network.routers01.sw_input_arbiter_activity        49231                      
system.ruby.network.routers01.sw_output_arbiter_activity        49152                      
system.ruby.network.routers02.buffer_reads        34295                      
system.ruby.network.routers02.buffer_writes        34295                      
system.ruby.network.routers02.crossbar_activity        34289                      
system.ruby.network.routers02.pwrStateResidencyTicks::UNDEFINED    800756000                       # Cumulative time (in ticks) in various power states
system.ruby.network.routers02.sw_input_arbiter_activity        34382                      
system.ruby.network.routers02.sw_output_arbiter_activity        34289                      
system.ruby.network.routers03.buffer_reads        26788                      
system.ruby.network.routers03.buffer_writes        26788                      
system.ruby.network.routers03.crossbar_activity        26788                      
system.ruby.network.routers03.pwrStateResidencyTicks::UNDEFINED    800756000                       # Cumulative time (in ticks) in various power states
system.ruby.network.routers03.sw_input_arbiter_activity        26917                      
system.ruby.network.routers03.sw_output_arbiter_activity        26788                      
system.ruby.network.routers04.buffer_reads        67081                      
system.ruby.network.routers04.buffer_writes        67081                      
system.ruby.network.routers04.crossbar_activity        67081                      
system.ruby.network.routers04.pwrStateResidencyTicks::UNDEFINED    800756000                       # Cumulative time (in ticks) in various power states
system.ruby.network.routers04.sw_input_arbiter_activity        67392                      
system.ruby.network.routers04.sw_output_arbiter_activity        67081                      
system.ruby.network.routers05.buffer_reads        24529                      
system.ruby.network.routers05.buffer_writes        24529                      
system.ruby.network.routers05.crossbar_activity        24529                      
system.ruby.network.routers05.pwrStateResidencyTicks::UNDEFINED    800756000                       # Cumulative time (in ticks) in various power states
system.ruby.network.routers05.sw_input_arbiter_activity        24572                      
system.ruby.network.routers05.sw_output_arbiter_activity        24529                      
system.ruby.network.routers06.buffer_reads        20303                      
system.ruby.network.routers06.buffer_writes        20303                      
system.ruby.network.routers06.crossbar_activity        20300                      
system.ruby.network.routers06.pwrStateResidencyTicks::UNDEFINED    800756000                       # Cumulative time (in ticks) in various power states
system.ruby.network.routers06.sw_input_arbiter_activity        20338                      
system.ruby.network.routers06.sw_output_arbiter_activity        20300                      
system.ruby.network.routers07.buffer_reads        20006                      
system.ruby.network.routers07.buffer_writes        20006                      
system.ruby.network.routers07.crossbar_activity        20005                      
system.ruby.network.routers07.pwrStateResidencyTicks::UNDEFINED    800756000                       # Cumulative time (in ticks) in various power states
system.ruby.network.routers07.sw_input_arbiter_activity        20173                      
system.ruby.network.routers07.sw_output_arbiter_activity        20005                      
system.ruby.network.routers08.buffer_reads        50111                      
system.ruby.network.routers08.buffer_writes        50111                      
system.ruby.network.routers08.crossbar_activity        50109                      
system.ruby.network.routers08.pwrStateResidencyTicks::UNDEFINED    800756000                       # Cumulative time (in ticks) in various power states
system.ruby.network.routers08.sw_input_arbiter_activity        50874                      
system.ruby.network.routers08.sw_output_arbiter_activity        50109                      
system.ruby.network.routers09.buffer_reads        23159                      
system.ruby.network.routers09.buffer_writes        23159                      
system.ruby.network.routers09.crossbar_activity        23159                      
system.ruby.network.routers09.pwrStateResidencyTicks::UNDEFINED    800756000                       # Cumulative time (in ticks) in various power states
system.ruby.network.routers09.sw_input_arbiter_activity        23197                      
system.ruby.network.routers09.sw_output_arbiter_activity        23159                      
system.ruby.network.routers10.buffer_reads        23792                      
system.ruby.network.routers10.buffer_writes        23792                      
system.ruby.network.routers10.crossbar_activity        23786                      
system.ruby.network.routers10.pwrStateResidencyTicks::UNDEFINED    800756000                       # Cumulative time (in ticks) in various power states
system.ruby.network.routers10.sw_input_arbiter_activity        23967                      
system.ruby.network.routers10.sw_output_arbiter_activity        23786                      
system.ruby.network.routers11.buffer_reads        26581                      
system.ruby.network.routers11.buffer_writes        26581                      
system.ruby.network.routers11.crossbar_activity        26574                      
system.ruby.network.routers11.pwrStateResidencyTicks::UNDEFINED    800756000                       # Cumulative time (in ticks) in various power states
system.ruby.network.routers11.sw_input_arbiter_activity        28078                      
system.ruby.network.routers11.sw_output_arbiter_activity        26574                      
system.ruby.network.routers12.buffer_reads        48002                      
system.ruby.network.routers12.buffer_writes        48002                      
system.ruby.network.routers12.crossbar_activity        47997                      
system.ruby.network.routers12.pwrStateResidencyTicks::UNDEFINED    800756000                       # Cumulative time (in ticks) in various power states
system.ruby.network.routers12.sw_input_arbiter_activity        49968                      
system.ruby.network.routers12.sw_output_arbiter_activity        47997                      
system.ruby.network.routers13.buffer_reads        30265                      
system.ruby.network.routers13.buffer_writes        30265                      
system.ruby.network.routers13.crossbar_activity        30263                      
system.ruby.network.routers13.pwrStateResidencyTicks::UNDEFINED    800756000                       # Cumulative time (in ticks) in various power states
system.ruby.network.routers13.sw_input_arbiter_activity        30446                      
system.ruby.network.routers13.sw_output_arbiter_activity        30263                      
system.ruby.network.routers14.buffer_reads        25206                      
system.ruby.network.routers14.buffer_writes        25206                      
system.ruby.network.routers14.crossbar_activity        25202                      
system.ruby.network.routers14.pwrStateResidencyTicks::UNDEFINED    800756000                       # Cumulative time (in ticks) in various power states
system.ruby.network.routers14.sw_input_arbiter_activity        25346                      
system.ruby.network.routers14.sw_output_arbiter_activity        25202                      
system.ruby.network.routers15.buffer_reads        21498                      
system.ruby.network.routers15.buffer_writes        21498                      
system.ruby.network.routers15.crossbar_activity        21495                      
system.ruby.network.routers15.pwrStateResidencyTicks::UNDEFINED    800756000                       # Cumulative time (in ticks) in various power states
system.ruby.network.routers15.sw_input_arbiter_activity        21850                      
system.ruby.network.routers15.sw_output_arbiter_activity        21495                      
system.ruby.outstanding_req_hist_seqr::bucket_size            1                      
system.ruby.outstanding_req_hist_seqr::max_bucket            9                      
system.ruby.outstanding_req_hist_seqr::samples       185891                      
system.ruby.outstanding_req_hist_seqr::mean            1                      
system.ruby.outstanding_req_hist_seqr::gmean            1                      
system.ruby.outstanding_req_hist_seqr    |           0      0.00%      0.00% |      185891    100.00%    100.00% |           0      0.00%    100.00% |           0      0.00%    100.00% |           0      0.00%    100.00% |           0      0.00%    100.00% |           0      0.00%    100.00% |           0      0.00%    100.00% |           0      0.00%    100.00% |           0      0.00%    100.00%
system.ruby.outstanding_req_hist_seqr::total       185891                      
system.ruby.pwrStateResidencyTicks::UNDEFINED    800756000                       # Cumulative time (in ticks) in various power states
system.sys_port_proxy.pwrStateResidencyTicks::UNDEFINED    800756000                       # Cumulative time (in ticks) in various power states
system.voltage_domain.voltage                       1                       # Voltage in Volts

---------- End Simulation Statistics   ----------
