
---------- Begin Simulation Statistics ----------
final_tick                                  544917000                       # Number of ticks from beginning of simulation (restored from checkpoints and never reset)
host_inst_rate                                  17399                       # Simulator instruction rate (inst/s)
host_mem_usage                                5159788                       # Number of bytes of host memory used
host_op_rate                                    17451                       # Simulator op (including micro ops) rate (op/s)
host_seconds                                     7.41                       # Real time elapsed on the host
host_tick_rate                               73569166                       # Simulator tick rate (ticks/s)
sim_freq                                 1000000000000                       # Frequency of simulated ticks
sim_insts                                      128872                       # Number of instructions simulated
sim_ops                                        129254                       # Number of ops (including micro ops) simulated
sim_seconds                                  0.000545                       # Number of seconds simulated
sim_ticks                                   544917000                       # Number of ticks simulated
system.clk_domain.clock                          1000                       # Clock period in ticks
system.cpu00.Branches                           22350                       # Number of branches fetched
system.cpu00.committedInsts                    100001                       # Number of instructions committed
system.cpu00.committedOps                      100294                       # Number of ops (including micro ops) committed
system.cpu00.dtb.accesses                           0                       # DTB accesses
system.cpu00.dtb.hits                               0                       # DTB hits
system.cpu00.dtb.misses                             0                       # DTB misses
system.cpu00.dtb.pwrStateResidencyTicks::UNDEFINED    544917000                       # Cumulative time (in ticks) in various power states
system.cpu00.dtb.read_accesses                      0                       # DTB read accesses
system.cpu00.dtb.read_hits                          0                       # DTB read hits
system.cpu00.dtb.read_misses                        0                       # DTB read misses
system.cpu00.dtb.write_accesses                     0                       # DTB write accesses
system.cpu00.dtb.write_hits                         0                       # DTB write hits
system.cpu00.dtb.write_misses                       0                       # DTB write misses
system.cpu00.idle_fraction                   0.005714                       # Percentage of idle cycles
system.cpu00.itb.accesses                           0                       # DTB accesses
system.cpu00.itb.hits                               0                       # DTB hits
system.cpu00.itb.misses                             0                       # DTB misses
system.cpu00.itb.pwrStateResidencyTicks::UNDEFINED    544917000                       # Cumulative time (in ticks) in various power states
system.cpu00.itb.read_accesses                      0                       # DTB read accesses
system.cpu00.itb.read_hits                          0                       # DTB read hits
system.cpu00.itb.read_misses                        0                       # DTB read misses
system.cpu00.itb.write_accesses                     0                       # DTB write accesses
system.cpu00.itb.write_hits                         0                       # DTB write hits
system.cpu00.itb.write_misses                       0                       # DTB write misses
system.cpu00.not_idle_fraction               0.994286                       # Percentage of non-idle cycles
system.cpu00.numCycles                        1089834                       # number of cpu cycles simulated
system.cpu00.numPwrStateTransitions                 2                       # Number of power state transitions
system.cpu00.numWorkItemsCompleted                  0                       # number of work items this cpu completed
system.cpu00.numWorkItemsStarted                    0                       # number of work items this cpu started
system.cpu00.num_busy_cycles             1083607.000011                       # Number of busy cycles
system.cpu00.num_conditional_control_insts        15929                       # number of instructions that are conditional controls
system.cpu00.num_fp_alu_accesses                   12                       # Number of float alu accesses
system.cpu00.num_fp_insts                          12                       # number of float instructions
system.cpu00.num_fp_register_reads                 12                       # number of times the floating registers were read
system.cpu00.num_fp_register_writes                 0                       # number of times the floating registers were written
system.cpu00.num_func_calls                      6421                       # number of times a function call or return occured
system.cpu00.num_idle_cycles              6226.999989                       # Number of idle cycles
system.cpu00.num_int_alu_accesses               98834                       # Number of integer alu accesses
system.cpu00.num_int_insts                      98834                       # number of integer instructions
system.cpu00.num_int_register_reads            120839                       # number of times the integer registers were read
system.cpu00.num_int_register_writes            64473                       # number of times the integer registers were written
system.cpu00.num_load_insts                     20284                       # Number of load instructions
system.cpu00.num_mem_refs                       36549                       # number of memory refs
system.cpu00.num_store_insts                    16265                       # Number of store instructions
system.cpu00.num_vec_alu_accesses                   0                       # Number of vector alu accesses
system.cpu00.num_vec_insts                          0                       # number of vector instructions
system.cpu00.num_vec_register_reads                 0                       # number of times the vector registers were read
system.cpu00.num_vec_register_writes                0                       # number of times the vector registers were written
system.cpu00.op_class::No_OpClass                 860      0.86%      0.86% # Class of executed instruction
system.cpu00.op_class::IntAlu                   62922     62.69%     63.55% # Class of executed instruction
system.cpu00.op_class::IntMult                     30      0.03%     63.58% # Class of executed instruction
system.cpu00.op_class::IntDiv                       6      0.01%     63.58% # Class of executed instruction
system.cpu00.op_class::FloatAdd                     0      0.00%     63.58% # Class of executed instruction
system.cpu00.op_class::FloatCmp                     0      0.00%     63.58% # Class of executed instruction
system.cpu00.op_class::FloatCvt                     0      0.00%     63.58% # Class of executed instruction
system.cpu00.op_class::FloatMult                    0      0.00%     63.58% # Class of executed instruction
system.cpu00.op_class::FloatMultAcc                 0      0.00%     63.58% # Class of executed instruction
system.cpu00.op_class::FloatDiv                     0      0.00%     63.58% # Class of executed instruction
system.cpu00.op_class::FloatMisc                    0      0.00%     63.58% # Class of executed instruction
system.cpu00.op_class::FloatSqrt                    0      0.00%     63.58% # Class of executed instruction
system.cpu00.op_class::SimdAdd                      0      0.00%     63.58% # Class of executed instruction
system.cpu00.op_class::SimdAddAcc                   0      0.00%     63.58% # Class of executed instruction
system.cpu00.op_class::SimdAlu                      0      0.00%     63.58% # Class of executed instruction
system.cpu00.op_class::SimdCmp                      0      0.00%     63.58% # Class of executed instruction
system.cpu00.op_class::SimdCvt                      0      0.00%     63.58% # Class of executed instruction
system.cpu00.op_class::SimdMisc                     0      0.00%     63.58% # Class of executed instruction
system.cpu00.op_class::SimdMult                     0      0.00%     63.58% # Class of executed instruction
system.cpu00.op_class::SimdMultAcc                  0      0.00%     63.58% # Class of executed instruction
system.cpu00.op_class::SimdShift                    0      0.00%     63.58% # Class of executed instruction
system.cpu00.op_class::SimdShiftAcc                 0      0.00%     63.58% # Class of executed instruction
system.cpu00.op_class::SimdSqrt                     0      0.00%     63.58% # Class of executed instruction
system.cpu00.op_class::SimdFloatAdd                 0      0.00%     63.58% # Class of executed instruction
system.cpu00.op_class::SimdFloatAlu                 0      0.00%     63.58% # Class of executed instruction
system.cpu00.op_class::SimdFloatCmp                 0      0.00%     63.58% # Class of executed instruction
system.cpu00.op_class::SimdFloatCvt                 0      0.00%     63.58% # Class of executed instruction
system.cpu00.op_class::SimdFloatDiv                 0      0.00%     63.58% # Class of executed instruction
system.cpu00.op_class::SimdFloatMisc                0      0.00%     63.58% # Class of executed instruction
system.cpu00.op_class::SimdFloatMult                0      0.00%     63.58% # Class of executed instruction
system.cpu00.op_class::SimdFloatMultAcc             0      0.00%     63.58% # Class of executed instruction
system.cpu00.op_class::SimdFloatSqrt                0      0.00%     63.58% # Class of executed instruction
system.cpu00.op_class::SimdAes                      0      0.00%     63.58% # Class of executed instruction
system.cpu00.op_class::SimdAesMix                   0      0.00%     63.58% # Class of executed instruction
system.cpu00.op_class::SimdSha1Hash                 0      0.00%     63.58% # Class of executed instruction
system.cpu00.op_class::SimdSha1Hash2                0      0.00%     63.58% # Class of executed instruction
system.cpu00.op_class::SimdSha256Hash               0      0.00%     63.58% # Class of executed instruction
system.cpu00.op_class::SimdSha256Hash2              0      0.00%     63.58% # Class of executed instruction
system.cpu00.op_class::SimdShaSigma2                0      0.00%     63.58% # Class of executed instruction
system.cpu00.op_class::SimdShaSigma3                0      0.00%     63.58% # Class of executed instruction
system.cpu00.op_class::MemRead                  20569     20.49%     84.08% # Class of executed instruction
system.cpu00.op_class::MemWrite                 15968     15.91%     99.99% # Class of executed instruction
system.cpu00.op_class::FloatMemRead                 0      0.00%     99.99% # Class of executed instruction
system.cpu00.op_class::FloatMemWrite               12      0.01%    100.00% # Class of executed instruction
system.cpu00.op_class::IprAccess                    0      0.00%    100.00% # Class of executed instruction
system.cpu00.op_class::InstPrefetch                 0      0.00%    100.00% # Class of executed instruction
system.cpu00.op_class::total                   100367                       # Class of executed instruction
system.cpu00.pwrStateClkGateDist::samples            1                       # Distribution of time spent in the clock gated state
system.cpu00.pwrStateClkGateDist::mean        3113500                       # Distribution of time spent in the clock gated state
system.cpu00.pwrStateClkGateDist::1000-5e+10            1    100.00%    100.00% # Distribution of time spent in the clock gated state
system.cpu00.pwrStateClkGateDist::min_value      3113500                       # Distribution of time spent in the clock gated state
system.cpu00.pwrStateClkGateDist::max_value      3113500                       # Distribution of time spent in the clock gated state
system.cpu00.pwrStateClkGateDist::total             1                       # Distribution of time spent in the clock gated state
system.cpu00.pwrStateResidencyTicks::ON     541803500                       # Cumulative time (in ticks) in various power states
system.cpu00.pwrStateResidencyTicks::CLK_GATED      3113500                       # Cumulative time (in ticks) in various power states
system.cpu00.workload.numSyscalls                  72                       # Number of system calls
system.cpu01.Branches                             354                       # Number of branches fetched
system.cpu01.committedInsts                      1851                       # Number of instructions committed
system.cpu01.committedOps                        1857                       # Number of ops (including micro ops) committed
system.cpu01.dtb.accesses                           0                       # DTB accesses
system.cpu01.dtb.hits                               0                       # DTB hits
system.cpu01.dtb.misses                             0                       # DTB misses
system.cpu01.dtb.pwrStateResidencyTicks::UNDEFINED    544917000                       # Cumulative time (in ticks) in various power states
system.cpu01.dtb.read_accesses                      0                       # DTB read accesses
system.cpu01.dtb.read_hits                          0                       # DTB read hits
system.cpu01.dtb.read_misses                        0                       # DTB read misses
system.cpu01.dtb.write_accesses                     0                       # DTB write accesses
system.cpu01.dtb.write_hits                         0                       # DTB write hits
system.cpu01.dtb.write_misses                       0                       # DTB write misses
system.cpu01.idle_fraction                   0.973737                       # Percentage of idle cycles
system.cpu01.itb.accesses                           0                       # DTB accesses
system.cpu01.itb.hits                               0                       # DTB hits
system.cpu01.itb.misses                             0                       # DTB misses
system.cpu01.itb.pwrStateResidencyTicks::UNDEFINED    544917000                       # Cumulative time (in ticks) in various power states
system.cpu01.itb.read_accesses                      0                       # DTB read accesses
system.cpu01.itb.read_hits                          0                       # DTB read hits
system.cpu01.itb.read_misses                        0                       # DTB read misses
system.cpu01.itb.write_accesses                     0                       # DTB write accesses
system.cpu01.itb.write_hits                         0                       # DTB write hits
system.cpu01.itb.write_misses                       0                       # DTB write misses
system.cpu01.not_idle_fraction               0.026263                       # Percentage of non-idle cycles
system.cpu01.numCycles                        1089834                       # number of cpu cycles simulated
system.cpu01.numPwrStateTransitions                 2                       # Number of power state transitions
system.cpu01.numWorkItemsCompleted                  0                       # number of work items this cpu completed
system.cpu01.numWorkItemsStarted                    0                       # number of work items this cpu started
system.cpu01.num_busy_cycles             28622.001947                       # Number of busy cycles
system.cpu01.num_conditional_control_insts          186                       # number of instructions that are conditional controls
system.cpu01.num_fp_alu_accesses                   12                       # Number of float alu accesses
system.cpu01.num_fp_insts                          12                       # number of float instructions
system.cpu01.num_fp_register_reads                 12                       # number of times the floating registers were read
system.cpu01.num_fp_register_writes                 0                       # number of times the floating registers were written
system.cpu01.num_func_calls                       168                       # number of times a function call or return occured
system.cpu01.num_idle_cycles             1061211.998053                       # Number of idle cycles
system.cpu01.num_int_alu_accesses                1821                       # Number of integer alu accesses
system.cpu01.num_int_insts                       1821                       # number of integer instructions
system.cpu01.num_int_register_reads              2112                       # number of times the integer registers were read
system.cpu01.num_int_register_writes             1313                       # number of times the integer registers were written
system.cpu01.num_load_insts                       437                       # Number of load instructions
system.cpu01.num_mem_refs                         695                       # number of memory refs
system.cpu01.num_store_insts                      258                       # Number of store instructions
system.cpu01.num_vec_alu_accesses                   0                       # Number of vector alu accesses
system.cpu01.num_vec_insts                          0                       # number of vector instructions
system.cpu01.num_vec_register_reads                 0                       # number of times the vector registers were read
system.cpu01.num_vec_register_writes                0                       # number of times the vector registers were written
system.cpu01.op_class::No_OpClass                  10      0.54%      0.54% # Class of executed instruction
system.cpu01.op_class::IntAlu                    1151     61.92%     62.45% # Class of executed instruction
system.cpu01.op_class::IntMult                      1      0.05%     62.51% # Class of executed instruction
system.cpu01.op_class::IntDiv                       2      0.11%     62.61% # Class of executed instruction
system.cpu01.op_class::FloatAdd                     0      0.00%     62.61% # Class of executed instruction
system.cpu01.op_class::FloatCmp                     0      0.00%     62.61% # Class of executed instruction
system.cpu01.op_class::FloatCvt                     0      0.00%     62.61% # Class of executed instruction
system.cpu01.op_class::FloatMult                    0      0.00%     62.61% # Class of executed instruction
system.cpu01.op_class::FloatMultAcc                 0      0.00%     62.61% # Class of executed instruction
system.cpu01.op_class::FloatDiv                     0      0.00%     62.61% # Class of executed instruction
system.cpu01.op_class::FloatMisc                    0      0.00%     62.61% # Class of executed instruction
system.cpu01.op_class::FloatSqrt                    0      0.00%     62.61% # Class of executed instruction
system.cpu01.op_class::SimdAdd                      0      0.00%     62.61% # Class of executed instruction
system.cpu01.op_class::SimdAddAcc                   0      0.00%     62.61% # Class of executed instruction
system.cpu01.op_class::SimdAlu                      0      0.00%     62.61% # Class of executed instruction
system.cpu01.op_class::SimdCmp                      0      0.00%     62.61% # Class of executed instruction
system.cpu01.op_class::SimdCvt                      0      0.00%     62.61% # Class of executed instruction
system.cpu01.op_class::SimdMisc                     0      0.00%     62.61% # Class of executed instruction
system.cpu01.op_class::SimdMult                     0      0.00%     62.61% # Class of executed instruction
system.cpu01.op_class::SimdMultAcc                  0      0.00%     62.61% # Class of executed instruction
system.cpu01.op_class::SimdShift                    0      0.00%     62.61% # Class of executed instruction
system.cpu01.op_class::SimdShiftAcc                 0      0.00%     62.61% # Class of executed instruction
system.cpu01.op_class::SimdSqrt                     0      0.00%     62.61% # Class of executed instruction
system.cpu01.op_class::SimdFloatAdd                 0      0.00%     62.61% # Class of executed instruction
system.cpu01.op_class::SimdFloatAlu                 0      0.00%     62.61% # Class of executed instruction
system.cpu01.op_class::SimdFloatCmp                 0      0.00%     62.61% # Class of executed instruction
system.cpu01.op_class::SimdFloatCvt                 0      0.00%     62.61% # Class of executed instruction
system.cpu01.op_class::SimdFloatDiv                 0      0.00%     62.61% # Class of executed instruction
system.cpu01.op_class::SimdFloatMisc                0      0.00%     62.61% # Class of executed instruction
system.cpu01.op_class::SimdFloatMult                0      0.00%     62.61% # Class of executed instruction
system.cpu01.op_class::SimdFloatMultAcc             0      0.00%     62.61% # Class of executed instruction
system.cpu01.op_class::SimdFloatSqrt                0      0.00%     62.61% # Class of executed instruction
system.cpu01.op_class::SimdAes                      0      0.00%     62.61% # Class of executed instruction
system.cpu01.op_class::SimdAesMix                   0      0.00%     62.61% # Class of executed instruction
system.cpu01.op_class::SimdSha1Hash                 0      0.00%     62.61% # Class of executed instruction
system.cpu01.op_class::SimdSha1Hash2                0      0.00%     62.61% # Class of executed instruction
system.cpu01.op_class::SimdSha256Hash               0      0.00%     62.61% # Class of executed instruction
system.cpu01.op_class::SimdSha256Hash2              0      0.00%     62.61% # Class of executed instruction
system.cpu01.op_class::SimdShaSigma2                0      0.00%     62.61% # Class of executed instruction
system.cpu01.op_class::SimdShaSigma3                0      0.00%     62.61% # Class of executed instruction
system.cpu01.op_class::MemRead                    441     23.72%     86.34% # Class of executed instruction
system.cpu01.op_class::MemWrite                   242     13.02%     99.35% # Class of executed instruction
system.cpu01.op_class::FloatMemRead                 0      0.00%     99.35% # Class of executed instruction
system.cpu01.op_class::FloatMemWrite               12      0.65%    100.00% # Class of executed instruction
system.cpu01.op_class::IprAccess                    0      0.00%    100.00% # Class of executed instruction
system.cpu01.op_class::InstPrefetch                 0      0.00%    100.00% # Class of executed instruction
system.cpu01.op_class::total                     1859                       # Class of executed instruction
system.cpu01.pwrStateClkGateDist::samples            1                       # Distribution of time spent in the clock gated state
system.cpu01.pwrStateClkGateDist::mean      119627500                       # Distribution of time spent in the clock gated state
system.cpu01.pwrStateClkGateDist::1000-5e+10            1    100.00%    100.00% # Distribution of time spent in the clock gated state
system.cpu01.pwrStateClkGateDist::min_value    119627500                       # Distribution of time spent in the clock gated state
system.cpu01.pwrStateClkGateDist::max_value    119627500                       # Distribution of time spent in the clock gated state
system.cpu01.pwrStateClkGateDist::total             1                       # Distribution of time spent in the clock gated state
system.cpu01.pwrStateResidencyTicks::ON     425289500                       # Cumulative time (in ticks) in various power states
system.cpu01.pwrStateResidencyTicks::CLK_GATED    119627500                       # Cumulative time (in ticks) in various power states
system.cpu02.Branches                             415                       # Number of branches fetched
system.cpu02.committedInsts                      2192                       # Number of instructions committed
system.cpu02.committedOps                        2198                       # Number of ops (including micro ops) committed
system.cpu02.dtb.accesses                           0                       # DTB accesses
system.cpu02.dtb.hits                               0                       # DTB hits
system.cpu02.dtb.misses                             0                       # DTB misses
system.cpu02.dtb.pwrStateResidencyTicks::UNDEFINED    544917000                       # Cumulative time (in ticks) in various power states
system.cpu02.dtb.read_accesses                      0                       # DTB read accesses
system.cpu02.dtb.read_hits                          0                       # DTB read hits
system.cpu02.dtb.read_misses                        0                       # DTB read misses
system.cpu02.dtb.write_accesses                     0                       # DTB write accesses
system.cpu02.dtb.write_hits                         0                       # DTB write hits
system.cpu02.dtb.write_misses                       0                       # DTB write misses
system.cpu02.idle_fraction                   0.976313                       # Percentage of idle cycles
system.cpu02.itb.accesses                           0                       # DTB accesses
system.cpu02.itb.hits                               0                       # DTB hits
system.cpu02.itb.misses                             0                       # DTB misses
system.cpu02.itb.pwrStateResidencyTicks::UNDEFINED    544917000                       # Cumulative time (in ticks) in various power states
system.cpu02.itb.read_accesses                      0                       # DTB read accesses
system.cpu02.itb.read_hits                          0                       # DTB read hits
system.cpu02.itb.read_misses                        0                       # DTB read misses
system.cpu02.itb.write_accesses                     0                       # DTB write accesses
system.cpu02.itb.write_hits                         0                       # DTB write hits
system.cpu02.itb.write_misses                       0                       # DTB write misses
system.cpu02.not_idle_fraction               0.023687                       # Percentage of non-idle cycles
system.cpu02.numCycles                        1089811                       # number of cpu cycles simulated
system.cpu02.numPwrStateTransitions                 2                       # Number of power state transitions
system.cpu02.numWorkItemsCompleted                  0                       # number of work items this cpu completed
system.cpu02.numWorkItemsStarted                    0                       # number of work items this cpu started
system.cpu02.num_busy_cycles             25814.457149                       # Number of busy cycles
system.cpu02.num_conditional_control_insts          216                       # number of instructions that are conditional controls
system.cpu02.num_fp_alu_accesses                   12                       # Number of float alu accesses
system.cpu02.num_fp_insts                          12                       # number of float instructions
system.cpu02.num_fp_register_reads                 12                       # number of times the floating registers were read
system.cpu02.num_fp_register_writes                 0                       # number of times the floating registers were written
system.cpu02.num_func_calls                       199                       # number of times a function call or return occured
system.cpu02.num_idle_cycles             1063996.542851                       # Number of idle cycles
system.cpu02.num_int_alu_accesses                2157                       # Number of integer alu accesses
system.cpu02.num_int_insts                       2157                       # number of integer instructions
system.cpu02.num_int_register_reads              2496                       # number of times the integer registers were read
system.cpu02.num_int_register_writes             1569                       # number of times the integer registers were written
system.cpu02.num_load_insts                       523                       # Number of load instructions
system.cpu02.num_mem_refs                         817                       # number of memory refs
system.cpu02.num_store_insts                      294                       # Number of store instructions
system.cpu02.num_vec_alu_accesses                   0                       # Number of vector alu accesses
system.cpu02.num_vec_insts                          0                       # number of vector instructions
system.cpu02.num_vec_register_reads                 0                       # number of times the vector registers were read
system.cpu02.num_vec_register_writes                0                       # number of times the vector registers were written
system.cpu02.op_class::No_OpClass                  10      0.45%      0.45% # Class of executed instruction
system.cpu02.op_class::IntAlu                    1370     62.27%     62.73% # Class of executed instruction
system.cpu02.op_class::IntMult                      1      0.05%     62.77% # Class of executed instruction
system.cpu02.op_class::IntDiv                       2      0.09%     62.86% # Class of executed instruction
system.cpu02.op_class::FloatAdd                     0      0.00%     62.86% # Class of executed instruction
system.cpu02.op_class::FloatCmp                     0      0.00%     62.86% # Class of executed instruction
system.cpu02.op_class::FloatCvt                     0      0.00%     62.86% # Class of executed instruction
system.cpu02.op_class::FloatMult                    0      0.00%     62.86% # Class of executed instruction
system.cpu02.op_class::FloatMultAcc                 0      0.00%     62.86% # Class of executed instruction
system.cpu02.op_class::FloatDiv                     0      0.00%     62.86% # Class of executed instruction
system.cpu02.op_class::FloatMisc                    0      0.00%     62.86% # Class of executed instruction
system.cpu02.op_class::FloatSqrt                    0      0.00%     62.86% # Class of executed instruction
system.cpu02.op_class::SimdAdd                      0      0.00%     62.86% # Class of executed instruction
system.cpu02.op_class::SimdAddAcc                   0      0.00%     62.86% # Class of executed instruction
system.cpu02.op_class::SimdAlu                      0      0.00%     62.86% # Class of executed instruction
system.cpu02.op_class::SimdCmp                      0      0.00%     62.86% # Class of executed instruction
system.cpu02.op_class::SimdCvt                      0      0.00%     62.86% # Class of executed instruction
system.cpu02.op_class::SimdMisc                     0      0.00%     62.86% # Class of executed instruction
system.cpu02.op_class::SimdMult                     0      0.00%     62.86% # Class of executed instruction
system.cpu02.op_class::SimdMultAcc                  0      0.00%     62.86% # Class of executed instruction
system.cpu02.op_class::SimdShift                    0      0.00%     62.86% # Class of executed instruction
system.cpu02.op_class::SimdShiftAcc                 0      0.00%     62.86% # Class of executed instruction
system.cpu02.op_class::SimdSqrt                     0      0.00%     62.86% # Class of executed instruction
system.cpu02.op_class::SimdFloatAdd                 0      0.00%     62.86% # Class of executed instruction
system.cpu02.op_class::SimdFloatAlu                 0      0.00%     62.86% # Class of executed instruction
system.cpu02.op_class::SimdFloatCmp                 0      0.00%     62.86% # Class of executed instruction
system.cpu02.op_class::SimdFloatCvt                 0      0.00%     62.86% # Class of executed instruction
system.cpu02.op_class::SimdFloatDiv                 0      0.00%     62.86% # Class of executed instruction
system.cpu02.op_class::SimdFloatMisc                0      0.00%     62.86% # Class of executed instruction
system.cpu02.op_class::SimdFloatMult                0      0.00%     62.86% # Class of executed instruction
system.cpu02.op_class::SimdFloatMultAcc             0      0.00%     62.86% # Class of executed instruction
system.cpu02.op_class::SimdFloatSqrt                0      0.00%     62.86% # Class of executed instruction
system.cpu02.op_class::SimdAes                      0      0.00%     62.86% # Class of executed instruction
system.cpu02.op_class::SimdAesMix                   0      0.00%     62.86% # Class of executed instruction
system.cpu02.op_class::SimdSha1Hash                 0      0.00%     62.86% # Class of executed instruction
system.cpu02.op_class::SimdSha1Hash2                0      0.00%     62.86% # Class of executed instruction
system.cpu02.op_class::SimdSha256Hash               0      0.00%     62.86% # Class of executed instruction
system.cpu02.op_class::SimdSha256Hash2              0      0.00%     62.86% # Class of executed instruction
system.cpu02.op_class::SimdShaSigma2                0      0.00%     62.86% # Class of executed instruction
system.cpu02.op_class::SimdShaSigma3                0      0.00%     62.86% # Class of executed instruction
system.cpu02.op_class::MemRead                    527     23.95%     86.82% # Class of executed instruction
system.cpu02.op_class::MemWrite                   278     12.64%     99.45% # Class of executed instruction
system.cpu02.op_class::FloatMemRead                 0      0.00%     99.45% # Class of executed instruction
system.cpu02.op_class::FloatMemWrite               12      0.55%    100.00% # Class of executed instruction
system.cpu02.op_class::IprAccess                    0      0.00%    100.00% # Class of executed instruction
system.cpu02.op_class::InstPrefetch                 0      0.00%    100.00% # Class of executed instruction
system.cpu02.op_class::total                     2200                       # Class of executed instruction
system.cpu02.pwrStateClkGateDist::samples            1                       # Distribution of time spent in the clock gated state
system.cpu02.pwrStateClkGateDist::mean      112755500                       # Distribution of time spent in the clock gated state
system.cpu02.pwrStateClkGateDist::1000-5e+10            1    100.00%    100.00% # Distribution of time spent in the clock gated state
system.cpu02.pwrStateClkGateDist::min_value    112755500                       # Distribution of time spent in the clock gated state
system.cpu02.pwrStateClkGateDist::max_value    112755500                       # Distribution of time spent in the clock gated state
system.cpu02.pwrStateClkGateDist::total             1                       # Distribution of time spent in the clock gated state
system.cpu02.pwrStateResidencyTicks::ON     432161500                       # Cumulative time (in ticks) in various power states
system.cpu02.pwrStateResidencyTicks::CLK_GATED    112755500                       # Cumulative time (in ticks) in various power states
system.cpu03.Branches                             375                       # Number of branches fetched
system.cpu03.committedInsts                      1948                       # Number of instructions committed
system.cpu03.committedOps                        1954                       # Number of ops (including micro ops) committed
system.cpu03.dtb.accesses                           0                       # DTB accesses
system.cpu03.dtb.hits                               0                       # DTB hits
system.cpu03.dtb.misses                             0                       # DTB misses
system.cpu03.dtb.pwrStateResidencyTicks::UNDEFINED    544917000                       # Cumulative time (in ticks) in various power states
system.cpu03.dtb.read_accesses                      0                       # DTB read accesses
system.cpu03.dtb.read_hits                          0                       # DTB read hits
system.cpu03.dtb.read_misses                        0                       # DTB read misses
system.cpu03.dtb.write_accesses                     0                       # DTB write accesses
system.cpu03.dtb.write_hits                         0                       # DTB write hits
system.cpu03.dtb.write_misses                       0                       # DTB write misses
system.cpu03.idle_fraction                   0.976122                       # Percentage of idle cycles
system.cpu03.itb.accesses                           0                       # DTB accesses
system.cpu03.itb.hits                               0                       # DTB hits
system.cpu03.itb.misses                             0                       # DTB misses
system.cpu03.itb.pwrStateResidencyTicks::UNDEFINED    544917000                       # Cumulative time (in ticks) in various power states
system.cpu03.itb.read_accesses                      0                       # DTB read accesses
system.cpu03.itb.read_hits                          0                       # DTB read hits
system.cpu03.itb.read_misses                        0                       # DTB read misses
system.cpu03.itb.write_accesses                     0                       # DTB write accesses
system.cpu03.itb.write_hits                         0                       # DTB write hits
system.cpu03.itb.write_misses                       0                       # DTB write misses
system.cpu03.not_idle_fraction               0.023878                       # Percentage of non-idle cycles
system.cpu03.numCycles                        1089707                       # number of cpu cycles simulated
system.cpu03.numPwrStateTransitions                 2                       # Number of power state transitions
system.cpu03.numWorkItemsCompleted                  0                       # number of work items this cpu completed
system.cpu03.numWorkItemsStarted                    0                       # number of work items this cpu started
system.cpu03.num_busy_cycles             26019.969453                       # Number of busy cycles
system.cpu03.num_conditional_control_insts          191                       # number of instructions that are conditional controls
system.cpu03.num_fp_alu_accesses                   12                       # Number of float alu accesses
system.cpu03.num_fp_insts                          12                       # number of float instructions
system.cpu03.num_fp_register_reads                 12                       # number of times the floating registers were read
system.cpu03.num_fp_register_writes                 0                       # number of times the floating registers were written
system.cpu03.num_func_calls                       184                       # number of times a function call or return occured
system.cpu03.num_idle_cycles             1063687.030547                       # Number of idle cycles
system.cpu03.num_int_alu_accesses                1910                       # Number of integer alu accesses
system.cpu03.num_int_insts                       1910                       # number of integer instructions
system.cpu03.num_int_register_reads              2216                       # number of times the integer registers were read
system.cpu03.num_int_register_writes             1382                       # number of times the integer registers were written
system.cpu03.num_load_insts                       459                       # Number of load instructions
system.cpu03.num_mem_refs                         726                       # number of memory refs
system.cpu03.num_store_insts                      267                       # Number of store instructions
system.cpu03.num_vec_alu_accesses                   0                       # Number of vector alu accesses
system.cpu03.num_vec_insts                          0                       # number of vector instructions
system.cpu03.num_vec_register_reads                 0                       # number of times the vector registers were read
system.cpu03.num_vec_register_writes                0                       # number of times the vector registers were written
system.cpu03.op_class::No_OpClass                  10      0.51%      0.51% # Class of executed instruction
system.cpu03.op_class::IntAlu                    1217     62.22%     62.73% # Class of executed instruction
system.cpu03.op_class::IntMult                      1      0.05%     62.78% # Class of executed instruction
system.cpu03.op_class::IntDiv                       2      0.10%     62.88% # Class of executed instruction
system.cpu03.op_class::FloatAdd                     0      0.00%     62.88% # Class of executed instruction
system.cpu03.op_class::FloatCmp                     0      0.00%     62.88% # Class of executed instruction
system.cpu03.op_class::FloatCvt                     0      0.00%     62.88% # Class of executed instruction
system.cpu03.op_class::FloatMult                    0      0.00%     62.88% # Class of executed instruction
system.cpu03.op_class::FloatMultAcc                 0      0.00%     62.88% # Class of executed instruction
system.cpu03.op_class::FloatDiv                     0      0.00%     62.88% # Class of executed instruction
system.cpu03.op_class::FloatMisc                    0      0.00%     62.88% # Class of executed instruction
system.cpu03.op_class::FloatSqrt                    0      0.00%     62.88% # Class of executed instruction
system.cpu03.op_class::SimdAdd                      0      0.00%     62.88% # Class of executed instruction
system.cpu03.op_class::SimdAddAcc                   0      0.00%     62.88% # Class of executed instruction
system.cpu03.op_class::SimdAlu                      0      0.00%     62.88% # Class of executed instruction
system.cpu03.op_class::SimdCmp                      0      0.00%     62.88% # Class of executed instruction
system.cpu03.op_class::SimdCvt                      0      0.00%     62.88% # Class of executed instruction
system.cpu03.op_class::SimdMisc                     0      0.00%     62.88% # Class of executed instruction
system.cpu03.op_class::SimdMult                     0      0.00%     62.88% # Class of executed instruction
system.cpu03.op_class::SimdMultAcc                  0      0.00%     62.88% # Class of executed instruction
system.cpu03.op_class::SimdShift                    0      0.00%     62.88% # Class of executed instruction
system.cpu03.op_class::SimdShiftAcc                 0      0.00%     62.88% # Class of executed instruction
system.cpu03.op_class::SimdSqrt                     0      0.00%     62.88% # Class of executed instruction
system.cpu03.op_class::SimdFloatAdd                 0      0.00%     62.88% # Class of executed instruction
system.cpu03.op_class::SimdFloatAlu                 0      0.00%     62.88% # Class of executed instruction
system.cpu03.op_class::SimdFloatCmp                 0      0.00%     62.88% # Class of executed instruction
system.cpu03.op_class::SimdFloatCvt                 0      0.00%     62.88% # Class of executed instruction
system.cpu03.op_class::SimdFloatDiv                 0      0.00%     62.88% # Class of executed instruction
system.cpu03.op_class::SimdFloatMisc                0      0.00%     62.88% # Class of executed instruction
system.cpu03.op_class::SimdFloatMult                0      0.00%     62.88% # Class of executed instruction
system.cpu03.op_class::SimdFloatMultAcc             0      0.00%     62.88% # Class of executed instruction
system.cpu03.op_class::SimdFloatSqrt                0      0.00%     62.88% # Class of executed instruction
system.cpu03.op_class::SimdAes                      0      0.00%     62.88% # Class of executed instruction
system.cpu03.op_class::SimdAesMix                   0      0.00%     62.88% # Class of executed instruction
system.cpu03.op_class::SimdSha1Hash                 0      0.00%     62.88% # Class of executed instruction
system.cpu03.op_class::SimdSha1Hash2                0      0.00%     62.88% # Class of executed instruction
system.cpu03.op_class::SimdSha256Hash               0      0.00%     62.88% # Class of executed instruction
system.cpu03.op_class::SimdSha256Hash2              0      0.00%     62.88% # Class of executed instruction
system.cpu03.op_class::SimdShaSigma2                0      0.00%     62.88% # Class of executed instruction
system.cpu03.op_class::SimdShaSigma3                0      0.00%     62.88% # Class of executed instruction
system.cpu03.op_class::MemRead                    463     23.67%     86.55% # Class of executed instruction
system.cpu03.op_class::MemWrite                   251     12.83%     99.39% # Class of executed instruction
system.cpu03.op_class::FloatMemRead                 0      0.00%     99.39% # Class of executed instruction
system.cpu03.op_class::FloatMemWrite               12      0.61%    100.00% # Class of executed instruction
system.cpu03.op_class::IprAccess                    0      0.00%    100.00% # Class of executed instruction
system.cpu03.op_class::InstPrefetch                 0      0.00%    100.00% # Class of executed instruction
system.cpu03.op_class::total                     1956                       # Class of executed instruction
system.cpu03.pwrStateClkGateDist::samples            1                       # Distribution of time spent in the clock gated state
system.cpu03.pwrStateClkGateDist::mean      103275500                       # Distribution of time spent in the clock gated state
system.cpu03.pwrStateClkGateDist::1000-5e+10            1    100.00%    100.00% # Distribution of time spent in the clock gated state
system.cpu03.pwrStateClkGateDist::min_value    103275500                       # Distribution of time spent in the clock gated state
system.cpu03.pwrStateClkGateDist::max_value    103275500                       # Distribution of time spent in the clock gated state
system.cpu03.pwrStateClkGateDist::total             1                       # Distribution of time spent in the clock gated state
system.cpu03.pwrStateResidencyTicks::ON     441641500                       # Cumulative time (in ticks) in various power states
system.cpu03.pwrStateResidencyTicks::CLK_GATED    103275500                       # Cumulative time (in ticks) in various power states
system.cpu04.Branches                             355                       # Number of branches fetched
system.cpu04.committedInsts                      1850                       # Number of instructions committed
system.cpu04.committedOps                        1856                       # Number of ops (including micro ops) committed
system.cpu04.dtb.accesses                           0                       # DTB accesses
system.cpu04.dtb.hits                               0                       # DTB hits
system.cpu04.dtb.misses                             0                       # DTB misses
system.cpu04.dtb.pwrStateResidencyTicks::UNDEFINED    544917000                       # Cumulative time (in ticks) in various power states
system.cpu04.dtb.read_accesses                      0                       # DTB read accesses
system.cpu04.dtb.read_hits                          0                       # DTB read hits
system.cpu04.dtb.read_misses                        0                       # DTB read misses
system.cpu04.dtb.write_accesses                     0                       # DTB write accesses
system.cpu04.dtb.write_hits                         0                       # DTB write hits
system.cpu04.dtb.write_misses                       0                       # DTB write misses
system.cpu04.idle_fraction                   0.976173                       # Percentage of idle cycles
system.cpu04.itb.accesses                           0                       # DTB accesses
system.cpu04.itb.hits                               0                       # DTB hits
system.cpu04.itb.misses                             0                       # DTB misses
system.cpu04.itb.pwrStateResidencyTicks::UNDEFINED    544917000                       # Cumulative time (in ticks) in various power states
system.cpu04.itb.read_accesses                      0                       # DTB read accesses
system.cpu04.itb.read_hits                          0                       # DTB read hits
system.cpu04.itb.read_misses                        0                       # DTB read misses
system.cpu04.itb.write_accesses                     0                       # DTB write accesses
system.cpu04.itb.write_hits                         0                       # DTB write hits
system.cpu04.itb.write_misses                       0                       # DTB write misses
system.cpu04.not_idle_fraction               0.023827                       # Percentage of non-idle cycles
system.cpu04.numCycles                        1089834                       # number of cpu cycles simulated
system.cpu04.numPwrStateTransitions                 2                       # Number of power state transitions
system.cpu04.numWorkItemsCompleted                  0                       # number of work items this cpu completed
system.cpu04.numWorkItemsStarted                    0                       # number of work items this cpu started
system.cpu04.num_busy_cycles             25968.001952                       # Number of busy cycles
system.cpu04.num_conditional_control_insts          183                       # number of instructions that are conditional controls
system.cpu04.num_fp_alu_accesses                   12                       # Number of float alu accesses
system.cpu04.num_fp_insts                          12                       # number of float instructions
system.cpu04.num_fp_register_reads                 12                       # number of times the floating registers were read
system.cpu04.num_fp_register_writes                 0                       # number of times the floating registers were written
system.cpu04.num_func_calls                       172                       # number of times a function call or return occured
system.cpu04.num_idle_cycles             1063865.998048                       # Number of idle cycles
system.cpu04.num_int_alu_accesses                1816                       # Number of integer alu accesses
system.cpu04.num_int_insts                       1816                       # number of integer instructions
system.cpu04.num_int_register_reads              2108                       # number of times the integer registers were read
system.cpu04.num_int_register_writes             1311                       # number of times the integer registers were written
system.cpu04.num_load_insts                       437                       # Number of load instructions
system.cpu04.num_mem_refs                         694                       # number of memory refs
system.cpu04.num_store_insts                      257                       # Number of store instructions
system.cpu04.num_vec_alu_accesses                   0                       # Number of vector alu accesses
system.cpu04.num_vec_insts                          0                       # number of vector instructions
system.cpu04.num_vec_register_reads                 0                       # number of times the vector registers were read
system.cpu04.num_vec_register_writes                0                       # number of times the vector registers were written
system.cpu04.op_class::No_OpClass                  10      0.54%      0.54% # Class of executed instruction
system.cpu04.op_class::IntAlu                    1151     61.95%     62.49% # Class of executed instruction
system.cpu04.op_class::IntMult                      1      0.05%     62.54% # Class of executed instruction
system.cpu04.op_class::IntDiv                       2      0.11%     62.65% # Class of executed instruction
system.cpu04.op_class::FloatAdd                     0      0.00%     62.65% # Class of executed instruction
system.cpu04.op_class::FloatCmp                     0      0.00%     62.65% # Class of executed instruction
system.cpu04.op_class::FloatCvt                     0      0.00%     62.65% # Class of executed instruction
system.cpu04.op_class::FloatMult                    0      0.00%     62.65% # Class of executed instruction
system.cpu04.op_class::FloatMultAcc                 0      0.00%     62.65% # Class of executed instruction
system.cpu04.op_class::FloatDiv                     0      0.00%     62.65% # Class of executed instruction
system.cpu04.op_class::FloatMisc                    0      0.00%     62.65% # Class of executed instruction
system.cpu04.op_class::FloatSqrt                    0      0.00%     62.65% # Class of executed instruction
system.cpu04.op_class::SimdAdd                      0      0.00%     62.65% # Class of executed instruction
system.cpu04.op_class::SimdAddAcc                   0      0.00%     62.65% # Class of executed instruction
system.cpu04.op_class::SimdAlu                      0      0.00%     62.65% # Class of executed instruction
system.cpu04.op_class::SimdCmp                      0      0.00%     62.65% # Class of executed instruction
system.cpu04.op_class::SimdCvt                      0      0.00%     62.65% # Class of executed instruction
system.cpu04.op_class::SimdMisc                     0      0.00%     62.65% # Class of executed instruction
system.cpu04.op_class::SimdMult                     0      0.00%     62.65% # Class of executed instruction
system.cpu04.op_class::SimdMultAcc                  0      0.00%     62.65% # Class of executed instruction
system.cpu04.op_class::SimdShift                    0      0.00%     62.65% # Class of executed instruction
system.cpu04.op_class::SimdShiftAcc                 0      0.00%     62.65% # Class of executed instruction
system.cpu04.op_class::SimdSqrt                     0      0.00%     62.65% # Class of executed instruction
system.cpu04.op_class::SimdFloatAdd                 0      0.00%     62.65% # Class of executed instruction
system.cpu04.op_class::SimdFloatAlu                 0      0.00%     62.65% # Class of executed instruction
system.cpu04.op_class::SimdFloatCmp                 0      0.00%     62.65% # Class of executed instruction
system.cpu04.op_class::SimdFloatCvt                 0      0.00%     62.65% # Class of executed instruction
system.cpu04.op_class::SimdFloatDiv                 0      0.00%     62.65% # Class of executed instruction
system.cpu04.op_class::SimdFloatMisc                0      0.00%     62.65% # Class of executed instruction
system.cpu04.op_class::SimdFloatMult                0      0.00%     62.65% # Class of executed instruction
system.cpu04.op_class::SimdFloatMultAcc             0      0.00%     62.65% # Class of executed instruction
system.cpu04.op_class::SimdFloatSqrt                0      0.00%     62.65% # Class of executed instruction
system.cpu04.op_class::SimdAes                      0      0.00%     62.65% # Class of executed instruction
system.cpu04.op_class::SimdAesMix                   0      0.00%     62.65% # Class of executed instruction
system.cpu04.op_class::SimdSha1Hash                 0      0.00%     62.65% # Class of executed instruction
system.cpu04.op_class::SimdSha1Hash2                0      0.00%     62.65% # Class of executed instruction
system.cpu04.op_class::SimdSha256Hash               0      0.00%     62.65% # Class of executed instruction
system.cpu04.op_class::SimdSha256Hash2              0      0.00%     62.65% # Class of executed instruction
system.cpu04.op_class::SimdShaSigma2                0      0.00%     62.65% # Class of executed instruction
system.cpu04.op_class::SimdShaSigma3                0      0.00%     62.65% # Class of executed instruction
system.cpu04.op_class::MemRead                    441     23.74%     86.38% # Class of executed instruction
system.cpu04.op_class::MemWrite                   241     12.97%     99.35% # Class of executed instruction
system.cpu04.op_class::FloatMemRead                 0      0.00%     99.35% # Class of executed instruction
system.cpu04.op_class::FloatMemWrite               12      0.65%    100.00% # Class of executed instruction
system.cpu04.op_class::IprAccess                    0      0.00%    100.00% # Class of executed instruction
system.cpu04.op_class::InstPrefetch                 0      0.00%    100.00% # Class of executed instruction
system.cpu04.op_class::total                     1858                       # Class of executed instruction
system.cpu04.pwrStateClkGateDist::samples            1                       # Distribution of time spent in the clock gated state
system.cpu04.pwrStateClkGateDist::mean       94550000                       # Distribution of time spent in the clock gated state
system.cpu04.pwrStateClkGateDist::1000-5e+10            1    100.00%    100.00% # Distribution of time spent in the clock gated state
system.cpu04.pwrStateClkGateDist::min_value     94550000                       # Distribution of time spent in the clock gated state
system.cpu04.pwrStateClkGateDist::max_value     94550000                       # Distribution of time spent in the clock gated state
system.cpu04.pwrStateClkGateDist::total             1                       # Distribution of time spent in the clock gated state
system.cpu04.pwrStateResidencyTicks::ON     450367000                       # Cumulative time (in ticks) in various power states
system.cpu04.pwrStateResidencyTicks::CLK_GATED     94550000                       # Cumulative time (in ticks) in various power states
system.cpu05.Branches                             390                       # Number of branches fetched
system.cpu05.committedInsts                      2034                       # Number of instructions committed
system.cpu05.committedOps                        2040                       # Number of ops (including micro ops) committed
system.cpu05.dtb.accesses                           0                       # DTB accesses
system.cpu05.dtb.hits                               0                       # DTB hits
system.cpu05.dtb.misses                             0                       # DTB misses
system.cpu05.dtb.pwrStateResidencyTicks::UNDEFINED    544917000                       # Cumulative time (in ticks) in various power states
system.cpu05.dtb.read_accesses                      0                       # DTB read accesses
system.cpu05.dtb.read_hits                          0                       # DTB read hits
system.cpu05.dtb.read_misses                        0                       # DTB read misses
system.cpu05.dtb.write_accesses                     0                       # DTB write accesses
system.cpu05.dtb.write_hits                         0                       # DTB write hits
system.cpu05.dtb.write_misses                       0                       # DTB write misses
system.cpu05.idle_fraction                   0.976672                       # Percentage of idle cycles
system.cpu05.itb.accesses                           0                       # DTB accesses
system.cpu05.itb.hits                               0                       # DTB hits
system.cpu05.itb.misses                             0                       # DTB misses
system.cpu05.itb.pwrStateResidencyTicks::UNDEFINED    544917000                       # Cumulative time (in ticks) in various power states
system.cpu05.itb.read_accesses                      0                       # DTB read accesses
system.cpu05.itb.read_hits                          0                       # DTB read hits
system.cpu05.itb.read_misses                        0                       # DTB read misses
system.cpu05.itb.write_accesses                     0                       # DTB write accesses
system.cpu05.itb.write_hits                         0                       # DTB write hits
system.cpu05.itb.write_misses                       0                       # DTB write misses
system.cpu05.not_idle_fraction               0.023328                       # Percentage of non-idle cycles
system.cpu05.numCycles                        1089727                       # number of cpu cycles simulated
system.cpu05.numPwrStateTransitions                 2                       # Number of power state transitions
system.cpu05.numWorkItemsCompleted                  0                       # number of work items this cpu completed
system.cpu05.numWorkItemsStarted                    0                       # number of work items this cpu started
system.cpu05.num_busy_cycles             25421.505823                       # Number of busy cycles
system.cpu05.num_conditional_control_insts          200                       # number of instructions that are conditional controls
system.cpu05.num_fp_alu_accesses                   12                       # Number of float alu accesses
system.cpu05.num_fp_insts                          12                       # number of float instructions
system.cpu05.num_fp_register_reads                 12                       # number of times the floating registers were read
system.cpu05.num_fp_register_writes                 0                       # number of times the floating registers were written
system.cpu05.num_func_calls                       190                       # number of times a function call or return occured
system.cpu05.num_idle_cycles             1064305.494177                       # Number of idle cycles
system.cpu05.num_int_alu_accesses                1996                       # Number of integer alu accesses
system.cpu05.num_int_insts                       1996                       # number of integer instructions
system.cpu05.num_int_register_reads              2315                       # number of times the integer registers were read
system.cpu05.num_int_register_writes             1447                       # number of times the integer registers were written
system.cpu05.num_load_insts                       481                       # Number of load instructions
system.cpu05.num_mem_refs                         757                       # number of memory refs
system.cpu05.num_store_insts                      276                       # Number of store instructions
system.cpu05.num_vec_alu_accesses                   0                       # Number of vector alu accesses
system.cpu05.num_vec_insts                          0                       # number of vector instructions
system.cpu05.num_vec_register_reads                 0                       # number of times the vector registers were read
system.cpu05.num_vec_register_writes                0                       # number of times the vector registers were written
system.cpu05.op_class::No_OpClass                  10      0.49%      0.49% # Class of executed instruction
system.cpu05.op_class::IntAlu                    1272     62.29%     62.78% # Class of executed instruction
system.cpu05.op_class::IntMult                      1      0.05%     62.83% # Class of executed instruction
system.cpu05.op_class::IntDiv                       2      0.10%     62.93% # Class of executed instruction
system.cpu05.op_class::FloatAdd                     0      0.00%     62.93% # Class of executed instruction
system.cpu05.op_class::FloatCmp                     0      0.00%     62.93% # Class of executed instruction
system.cpu05.op_class::FloatCvt                     0      0.00%     62.93% # Class of executed instruction
system.cpu05.op_class::FloatMult                    0      0.00%     62.93% # Class of executed instruction
system.cpu05.op_class::FloatMultAcc                 0      0.00%     62.93% # Class of executed instruction
system.cpu05.op_class::FloatDiv                     0      0.00%     62.93% # Class of executed instruction
system.cpu05.op_class::FloatMisc                    0      0.00%     62.93% # Class of executed instruction
system.cpu05.op_class::FloatSqrt                    0      0.00%     62.93% # Class of executed instruction
system.cpu05.op_class::SimdAdd                      0      0.00%     62.93% # Class of executed instruction
system.cpu05.op_class::SimdAddAcc                   0      0.00%     62.93% # Class of executed instruction
system.cpu05.op_class::SimdAlu                      0      0.00%     62.93% # Class of executed instruction
system.cpu05.op_class::SimdCmp                      0      0.00%     62.93% # Class of executed instruction
system.cpu05.op_class::SimdCvt                      0      0.00%     62.93% # Class of executed instruction
system.cpu05.op_class::SimdMisc                     0      0.00%     62.93% # Class of executed instruction
system.cpu05.op_class::SimdMult                     0      0.00%     62.93% # Class of executed instruction
system.cpu05.op_class::SimdMultAcc                  0      0.00%     62.93% # Class of executed instruction
system.cpu05.op_class::SimdShift                    0      0.00%     62.93% # Class of executed instruction
system.cpu05.op_class::SimdShiftAcc                 0      0.00%     62.93% # Class of executed instruction
system.cpu05.op_class::SimdSqrt                     0      0.00%     62.93% # Class of executed instruction
system.cpu05.op_class::SimdFloatAdd                 0      0.00%     62.93% # Class of executed instruction
system.cpu05.op_class::SimdFloatAlu                 0      0.00%     62.93% # Class of executed instruction
system.cpu05.op_class::SimdFloatCmp                 0      0.00%     62.93% # Class of executed instruction
system.cpu05.op_class::SimdFloatCvt                 0      0.00%     62.93% # Class of executed instruction
system.cpu05.op_class::SimdFloatDiv                 0      0.00%     62.93% # Class of executed instruction
system.cpu05.op_class::SimdFloatMisc                0      0.00%     62.93% # Class of executed instruction
system.cpu05.op_class::SimdFloatMult                0      0.00%     62.93% # Class of executed instruction
system.cpu05.op_class::SimdFloatMultAcc             0      0.00%     62.93% # Class of executed instruction
system.cpu05.op_class::SimdFloatSqrt                0      0.00%     62.93% # Class of executed instruction
system.cpu05.op_class::SimdAes                      0      0.00%     62.93% # Class of executed instruction
system.cpu05.op_class::SimdAesMix                   0      0.00%     62.93% # Class of executed instruction
system.cpu05.op_class::SimdSha1Hash                 0      0.00%     62.93% # Class of executed instruction
system.cpu05.op_class::SimdSha1Hash2                0      0.00%     62.93% # Class of executed instruction
system.cpu05.op_class::SimdSha256Hash               0      0.00%     62.93% # Class of executed instruction
system.cpu05.op_class::SimdSha256Hash2              0      0.00%     62.93% # Class of executed instruction
system.cpu05.op_class::SimdShaSigma2                0      0.00%     62.93% # Class of executed instruction
system.cpu05.op_class::SimdShaSigma3                0      0.00%     62.93% # Class of executed instruction
system.cpu05.op_class::MemRead                    485     23.75%     86.68% # Class of executed instruction
system.cpu05.op_class::MemWrite                   260     12.73%     99.41% # Class of executed instruction
system.cpu05.op_class::FloatMemRead                 0      0.00%     99.41% # Class of executed instruction
system.cpu05.op_class::FloatMemWrite               12      0.59%    100.00% # Class of executed instruction
system.cpu05.op_class::IprAccess                    0      0.00%    100.00% # Class of executed instruction
system.cpu05.op_class::InstPrefetch                 0      0.00%    100.00% # Class of executed instruction
system.cpu05.op_class::total                     2042                       # Class of executed instruction
system.cpu05.pwrStateClkGateDist::samples            1                       # Distribution of time spent in the clock gated state
system.cpu05.pwrStateClkGateDist::mean       86609000                       # Distribution of time spent in the clock gated state
system.cpu05.pwrStateClkGateDist::1000-5e+10            1    100.00%    100.00% # Distribution of time spent in the clock gated state
system.cpu05.pwrStateClkGateDist::min_value     86609000                       # Distribution of time spent in the clock gated state
system.cpu05.pwrStateClkGateDist::max_value     86609000                       # Distribution of time spent in the clock gated state
system.cpu05.pwrStateClkGateDist::total             1                       # Distribution of time spent in the clock gated state
system.cpu05.pwrStateResidencyTicks::ON     458308000                       # Cumulative time (in ticks) in various power states
system.cpu05.pwrStateResidencyTicks::CLK_GATED     86609000                       # Cumulative time (in ticks) in various power states
system.cpu06.Branches                             379                       # Number of branches fetched
system.cpu06.committedInsts                      1971                       # Number of instructions committed
system.cpu06.committedOps                        1977                       # Number of ops (including micro ops) committed
system.cpu06.dtb.accesses                           0                       # DTB accesses
system.cpu06.dtb.hits                               0                       # DTB hits
system.cpu06.dtb.misses                             0                       # DTB misses
system.cpu06.dtb.pwrStateResidencyTicks::UNDEFINED    544917000                       # Cumulative time (in ticks) in various power states
system.cpu06.dtb.read_accesses                      0                       # DTB read accesses
system.cpu06.dtb.read_hits                          0                       # DTB read hits
system.cpu06.dtb.read_misses                        0                       # DTB read misses
system.cpu06.dtb.write_accesses                     0                       # DTB write accesses
system.cpu06.dtb.write_hits                         0                       # DTB write hits
system.cpu06.dtb.write_misses                       0                       # DTB write misses
system.cpu06.idle_fraction                   0.976467                       # Percentage of idle cycles
system.cpu06.itb.accesses                           0                       # DTB accesses
system.cpu06.itb.hits                               0                       # DTB hits
system.cpu06.itb.misses                             0                       # DTB misses
system.cpu06.itb.pwrStateResidencyTicks::UNDEFINED    544917000                       # Cumulative time (in ticks) in various power states
system.cpu06.itb.read_accesses                      0                       # DTB read accesses
system.cpu06.itb.read_hits                          0                       # DTB read hits
system.cpu06.itb.read_misses                        0                       # DTB read misses
system.cpu06.itb.write_accesses                     0                       # DTB write accesses
system.cpu06.itb.write_hits                         0                       # DTB write hits
system.cpu06.itb.write_misses                       0                       # DTB write misses
system.cpu06.not_idle_fraction               0.023533                       # Percentage of non-idle cycles
system.cpu06.numCycles                        1089828                       # number of cpu cycles simulated
system.cpu06.numPwrStateTransitions                 2                       # Number of power state transitions
system.cpu06.numWorkItemsCompleted                  0                       # number of work items this cpu completed
system.cpu06.numWorkItemsStarted                    0                       # number of work items this cpu started
system.cpu06.num_busy_cycles             25646.860755                       # Number of busy cycles
system.cpu06.num_conditional_control_insts          194                       # number of instructions that are conditional controls
system.cpu06.num_fp_alu_accesses                   12                       # Number of float alu accesses
system.cpu06.num_fp_insts                          12                       # number of float instructions
system.cpu06.num_fp_register_reads                 12                       # number of times the floating registers were read
system.cpu06.num_fp_register_writes                 0                       # number of times the floating registers were written
system.cpu06.num_func_calls                       185                       # number of times a function call or return occured
system.cpu06.num_idle_cycles             1064181.139245                       # Number of idle cycles
system.cpu06.num_int_alu_accesses                1934                       # Number of integer alu accesses
system.cpu06.num_int_insts                       1934                       # number of integer instructions
system.cpu06.num_int_register_reads              2242                       # number of times the integer registers were read
system.cpu06.num_int_register_writes             1400                       # number of times the integer registers were written
system.cpu06.num_load_insts                       464                       # Number of load instructions
system.cpu06.num_mem_refs                         733                       # number of memory refs
system.cpu06.num_store_insts                      269                       # Number of store instructions
system.cpu06.num_vec_alu_accesses                   0                       # Number of vector alu accesses
system.cpu06.num_vec_insts                          0                       # number of vector instructions
system.cpu06.num_vec_register_reads                 0                       # number of times the vector registers were read
system.cpu06.num_vec_register_writes                0                       # number of times the vector registers were written
system.cpu06.op_class::No_OpClass                  10      0.51%      0.51% # Class of executed instruction
system.cpu06.op_class::IntAlu                    1233     62.30%     62.81% # Class of executed instruction
system.cpu06.op_class::IntMult                      1      0.05%     62.86% # Class of executed instruction
system.cpu06.op_class::IntDiv                       2      0.10%     62.96% # Class of executed instruction
system.cpu06.op_class::FloatAdd                     0      0.00%     62.96% # Class of executed instruction
system.cpu06.op_class::FloatCmp                     0      0.00%     62.96% # Class of executed instruction
system.cpu06.op_class::FloatCvt                     0      0.00%     62.96% # Class of executed instruction
system.cpu06.op_class::FloatMult                    0      0.00%     62.96% # Class of executed instruction
system.cpu06.op_class::FloatMultAcc                 0      0.00%     62.96% # Class of executed instruction
system.cpu06.op_class::FloatDiv                     0      0.00%     62.96% # Class of executed instruction
system.cpu06.op_class::FloatMisc                    0      0.00%     62.96% # Class of executed instruction
system.cpu06.op_class::FloatSqrt                    0      0.00%     62.96% # Class of executed instruction
system.cpu06.op_class::SimdAdd                      0      0.00%     62.96% # Class of executed instruction
system.cpu06.op_class::SimdAddAcc                   0      0.00%     62.96% # Class of executed instruction
system.cpu06.op_class::SimdAlu                      0      0.00%     62.96% # Class of executed instruction
system.cpu06.op_class::SimdCmp                      0      0.00%     62.96% # Class of executed instruction
system.cpu06.op_class::SimdCvt                      0      0.00%     62.96% # Class of executed instruction
system.cpu06.op_class::SimdMisc                     0      0.00%     62.96% # Class of executed instruction
system.cpu06.op_class::SimdMult                     0      0.00%     62.96% # Class of executed instruction
system.cpu06.op_class::SimdMultAcc                  0      0.00%     62.96% # Class of executed instruction
system.cpu06.op_class::SimdShift                    0      0.00%     62.96% # Class of executed instruction
system.cpu06.op_class::SimdShiftAcc                 0      0.00%     62.96% # Class of executed instruction
system.cpu06.op_class::SimdSqrt                     0      0.00%     62.96% # Class of executed instruction
system.cpu06.op_class::SimdFloatAdd                 0      0.00%     62.96% # Class of executed instruction
system.cpu06.op_class::SimdFloatAlu                 0      0.00%     62.96% # Class of executed instruction
system.cpu06.op_class::SimdFloatCmp                 0      0.00%     62.96% # Class of executed instruction
system.cpu06.op_class::SimdFloatCvt                 0      0.00%     62.96% # Class of executed instruction
system.cpu06.op_class::SimdFloatDiv                 0      0.00%     62.96% # Class of executed instruction
system.cpu06.op_class::SimdFloatMisc                0      0.00%     62.96% # Class of executed instruction
system.cpu06.op_class::SimdFloatMult                0      0.00%     62.96% # Class of executed instruction
system.cpu06.op_class::SimdFloatMultAcc             0      0.00%     62.96% # Class of executed instruction
system.cpu06.op_class::SimdFloatSqrt                0      0.00%     62.96% # Class of executed instruction
system.cpu06.op_class::SimdAes                      0      0.00%     62.96% # Class of executed instruction
system.cpu06.op_class::SimdAesMix                   0      0.00%     62.96% # Class of executed instruction
system.cpu06.op_class::SimdSha1Hash                 0      0.00%     62.96% # Class of executed instruction
system.cpu06.op_class::SimdSha1Hash2                0      0.00%     62.96% # Class of executed instruction
system.cpu06.op_class::SimdSha256Hash               0      0.00%     62.96% # Class of executed instruction
system.cpu06.op_class::SimdSha256Hash2              0      0.00%     62.96% # Class of executed instruction
system.cpu06.op_class::SimdShaSigma2                0      0.00%     62.96% # Class of executed instruction
system.cpu06.op_class::SimdShaSigma3                0      0.00%     62.96% # Class of executed instruction
system.cpu06.op_class::MemRead                    468     23.65%     86.61% # Class of executed instruction
system.cpu06.op_class::MemWrite                   253     12.78%     99.39% # Class of executed instruction
system.cpu06.op_class::FloatMemRead                 0      0.00%     99.39% # Class of executed instruction
system.cpu06.op_class::FloatMemWrite               12      0.61%    100.00% # Class of executed instruction
system.cpu06.op_class::IprAccess                    0      0.00%    100.00% # Class of executed instruction
system.cpu06.op_class::InstPrefetch                 0      0.00%    100.00% # Class of executed instruction
system.cpu06.op_class::total                     1979                       # Class of executed instruction
system.cpu06.pwrStateClkGateDist::samples            1                       # Distribution of time spent in the clock gated state
system.cpu06.pwrStateClkGateDist::mean       78268500                       # Distribution of time spent in the clock gated state
system.cpu06.pwrStateClkGateDist::1000-5e+10            1    100.00%    100.00% # Distribution of time spent in the clock gated state
system.cpu06.pwrStateClkGateDist::min_value     78268500                       # Distribution of time spent in the clock gated state
[...]
system.ruby.network.int_links39.credit_link.pwrStateResidencyTicks::UNDEFINED    544917000                       # Cumulative time (in ticks) in various power states
system.ruby.network.int_links39.network_link.pwrStateResidencyTicks::UNDEFINED    544917000                       # Cumulative time (in ticks) in various power states
system.ruby.network.int_links40.credit_link.pwrStateResidencyTicks::UNDEFINED    544917000                       # Cumulative time (in ticks) in various power states
system.ruby.network.int_links40.network_link.pwrStateResidencyTicks::UNDEFINED    544917000                       # Cumulative time (in ticks) in various power states
system.ruby.network.int_links41.credit_link.pwrStateResidencyTicks::UNDEFINED    544917000                       # Cumulative time (in ticks) in various power states
system.ruby.network.int_links41.network_link.pwrStateResidencyTicks::UNDEFINED    544917000                       # Cumulative time (in ticks) in various power states
system.ruby.network.int_links42.credit_link.pwrStateResidencyTicks::UNDEFINED    544917000                       # Cumulative time (in ticks) in various power states
system.ruby.network.int_links42.network_link.pwrStateResidencyTicks::UNDEFINED    544917000                       # Cumulative time (in ticks) in various power states
system.ruby.network.int_links43.credit_link.pwrStateResidencyTicks::UNDEFINED    544917000                       # Cumulative time (in ticks) in various power states
system.ruby.network.int_links43.network_link.pwrStateResidencyTicks::UNDEFINED    544917000                       # Cumulative time (in ticks) in various power states
system.ruby.network.int_links44.credit_link.pwrStateResidencyTicks::UNDEFINED    544917000                       # Cumulative time (in ticks) in various power states
system.ruby.network.int_links44.network_link.pwrStateResidencyTicks::UNDEFINED    544917000                       # Cumulative time (in ticks) in various power states
system.ruby.network.int_links45.credit_link.pwrStateResidencyTicks::UNDEFINED    544917000                       # Cumulative time (in ticks) in various power states
system.ruby.network.int_links45.network_link.pwrStateResidencyTicks::UNDEFINED    544917000                       # Cumulative time (in ticks) in various power states
system.ruby.network.int_links46.credit_link.pwrStateResidencyTicks::UNDEFINED    544917000                       # Cumulative time (in ticks) in various power states
system.ruby.network.int_links46.network_link.pwrStateResidencyTicks::UNDEFINED    544917000                       # Cumulative time (in ticks) in various power states
system.ruby.network.int_links47.credit_link.pwrStateResidencyTicks::UNDEFINED    544917000                       # Cumulative time (in ticks) in various power states
system.ruby.network.int_links47.network_link.pwrStateResidencyTicks::UNDEFINED    544917000                       # Cumulative time (in ticks) in various power states
system.ruby.network.netifs00.pwrStateResidencyTicks::UNDEFINED    544917000                       # Cumulative time (in ticks) in various power states
system.ruby.network.netifs01.pwrStateResidencyTicks::UNDEFINED    544917000                       # Cumulative time (in ticks) in various power states
system.ruby.network.netifs02.pwrStateResidencyTicks::UNDEFINED    544917000                       # Cumulative time (in ticks) in various power states
system.ruby.network.netifs03.pwrStateResidencyTicks::UNDEFINED    544917000                       # Cumulative time (in ticks) in various power states
system.ruby.network.netifs04.pwrStateResidencyTicks::UNDEFINED    544917000                       # Cumulative time (in ticks) in various power states
system.ruby.network.netifs05.pwrStateResidencyTicks::UNDEFINED    544917000                       # Cumulative time (in ticks) in various power states
system.ruby.network.netifs06.pwrStateResidencyTicks::UNDEFINED    544917000                       # Cumulative time (in ticks) in various power states
system.ruby.network.netifs07.pwrStateResidencyTicks::UNDEFINED    544917000                       # Cumulative time (in ticks) in various power states
system.ruby.network.netifs08.pwrStateResidencyTicks::UNDEFINED    544917000                       # Cumulative time (in ticks) in various power states
system.ruby.network.netifs09.pwrStateResidencyTicks::UNDEFINED    544917000                       # Cumulative time (in ticks) in various power states
system.ruby.network.netifs10.pwrStateResidencyTicks::UNDEFINED    544917000                       # Cumulative time (in ticks) in various power states
system.ruby.network.netifs11.pwrStateResidencyTicks::UNDEFINED    544917000                       # Cumulative time (in ticks) in various power states
system.ruby.network.netifs12.pwrStateResidencyTicks::UNDEFINED    544917000                       # Cumulative time (in ticks) in various power states
system.ruby.network.netifs13.pwrStateResidencyTicks::UNDEFINED    544917000                       # Cumulative time (in ticks) in various power states
system.ruby.network.netifs14.pwrStateResidencyTicks::UNDEFINED    544917000                       # Cumulative time (in ticks) in various power states
system.ruby.network.netifs15.pwrStateResidencyTicks::UNDEFINED    544917000                       # Cumulative time (in ticks) in various power states
system.ruby.network.netifs16.pwrStateResidencyTicks::UNDEFINED    544917000                       # Cumulative time (in ticks) in various power states
system.ruby.network.netifs17.pwrStateResidencyTicks::UNDEFINED    544917000                       # Cumulative time (in ticks) in various power states
system.ruby.network.netifs18.pwrStateResidencyTicks::UNDEFINED    544917000                       # Cumulative time (in ticks) in various power states
system.ruby.network.netifs19.pwrStateResidencyTicks::UNDEFINED    544917000                       # Cumulative time (in ticks) in various power states
system.ruby.network.netifs20.pwrStateResidencyTicks::UNDEFINED    544917000                       # Cumulative time (in ticks) in various power states
system.ruby.network.netifs21.pwrStateResidencyTicks::UNDEFINED    544917000                       # Cumulative time (in ticks) in various power states
system.ruby.network.netifs22.pwrStateResidencyTicks::UNDEFINED    544917000                       # Cumulative time (in ticks) in various power states
system.ruby.network.netifs23.pwrStateResidencyTicks::UNDEFINED    544917000                       # Cumulative time (in ticks) in various power states
system.ruby.network.netifs24.pwrStateResidencyTicks::UNDEFINED    544917000                       # Cumulative time (in ticks) in various power states
system.ruby.network.netifs25.pwrStateResidencyTicks::UNDEFINED    544917000                       # Cumulative time (in ticks) in various power states
system.ruby.network.netifs26.pwrStateResidencyTicks::UNDEFINED    544917000                       # Cumulative time (in ticks) in various power states
system.ruby.network.netifs27.pwrStateResidencyTicks::UNDEFINED    544917000                       # Cumulative time (in ticks) in various power states
system.ruby.network.netifs28.pwrStateResidencyTicks::UNDEFINED    544917000                       # Cumulative time (in ticks) in various power states
system.ruby.network.netifs29.pwrStateResidencyTicks::UNDEFINED    544917000                       # Cumulative time (in ticks) in various power states
system.ruby.network.netifs30.pwrStateResidencyTicks::UNDEFINED    544917000                       # Cumulative time (in ticks) in various power states
system.ruby.network.netifs31.pwrStateResidencyTicks::UNDEFINED    544917000                       # Cumulative time (in ticks) in various power states
system.ruby.network.netifs32.pwrStateResidencyTicks::UNDEFINED    544917000                       # Cumulative time (in ticks) in various power states
system.ruby.network.netifs33.pwrStateResidencyTicks::UNDEFINED    544917000                       # Cumulative time (in ticks) in various power states
system.ruby.network.netifs34.pwrStateResidencyTicks::UNDEFINED    544917000                       # Cumulative time (in ticks) in various power states
system.ruby.network.netifs35.pwrStateResidencyTicks::UNDEFINED    544917000                       # Cumulative time (in ticks) in various power states
system.ruby.network.packet_network_latency |      266695                       |      465400                       |      104956                      
system.ruby.network.packet_queueing_latency |       54481                       |       54143                       |       11812                      
system.ruby.network.packets_injected     |       24315     33.19%     33.19% |       37419     51.08%     84.27% |       11522     15.73%    100.00%
system.ruby.network.packets_injected::total        73256                      
system.ruby.network.packets_received     |       24312     33.19%     33.19% |       37416     51.08%     84.27% |       11520     15.73%    100.00%
system.ruby.network.packets_received::total        73248                      
system.ruby.network.pwrStateResidencyTicks::UNDEFINED    544917000                       # Cumulative time (in ticks) in various power states
system.ruby.network.routers00.buffer_reads       112625                      
system.ruby.network.routers00.buffer_writes       112625                      
system.ruby.network.routers00.crossbar_activity       112625                      
system.ruby.network.routers00.pwrStateResidencyTicks::UNDEFINED    544917000                       # Cumulative time (in ticks) in various power states
system.ruby.network.routers00.sw_input_arbiter_activity       113074                      
system.ruby.network.routers00.sw_output_arbiter_activity       112625                      
system.ruby.network.routers01.buffer_reads        51017                      
system.ruby.network.routers01.buffer_writes        51017                      
system.ruby.network.routers01.crossbar_activity        51017                      
system.ruby.network.routers01.pwrStateResidencyTicks::UNDEFINED    544917000                       # Cumulative time (in ticks) in various power states
system.ruby.network.routers01.sw_input_arbiter_activity        51190                      
system.ruby.network.routers01.sw_output_arbiter_activity        51017                      
system.ruby.network.routers02.buffer_reads        35933                      
system.ruby.network.routers02.buffer_writes        35933                      
system.ruby.network.routers02.crossbar_activity        35933                      
system.ruby.network.routers02.pwrStateResidencyTicks::UNDEFINED    544917000                       # Cumulative time (in ticks) in various power states
system.ruby.network.routers02.sw_input_arbiter_activity        36138                      
system.ruby.network.routers02.sw_output_arbiter_activity        35933                      
system.ruby.network.routers03.buffer_reads        29871                      
system.ruby.network.routers03.buffer_writes        29871                      
system.ruby.network.routers03.crossbar_activity        29871                      
system.ruby.network.routers03.pwrStateResidencyTicks::UNDEFINED    544917000                       # Cumulative time (in ticks) in various power states
system.ruby.network.routers03.sw_input_arbiter_activity        30245                      
system.ruby.network.routers03.sw_output_arbiter_activity        29871                      
system.ruby.network.routers04.buffer_reads        70860                      
system.ruby.network.routers04.buffer_writes        70860                      
system.ruby.network.routers04.crossbar_activity        70860                      
system.ruby.network.routers04.pwrStateResidencyTicks::UNDEFINED    544917000                       # Cumulative time (in ticks) in various power states
system.ruby.network.routers04.sw_input_arbiter_activity        71607                      
system.ruby.network.routers04.sw_output_arbiter_activity        70860                      
system.ruby.network.routers05.buffer_reads        25848                      
system.ruby.network.routers05.buffer_writes        25848                      
system.ruby.network.routers05.crossbar_activity        25848                      
system.ruby.network.routers05.pwrStateResidencyTicks::UNDEFINED    544917000                       # Cumulative time (in ticks) in various power states
system.ruby.network.routers05.sw_input_arbiter_activity        25931                      
system.ruby.network.routers05.sw_output_arbiter_activity        25848                      
system.ruby.network.routers06.buffer_reads        21344                      
system.ruby.network.routers06.buffer_writes        21344                      
system.ruby.network.routers06.crossbar_activity        21344                      
system.ruby.network.routers06.pwrStateResidencyTicks::UNDEFINED    544917000                       # Cumulative time (in ticks) in various power states
system.ruby.network.routers06.sw_input_arbiter_activity        21409                      
system.ruby.network.routers06.sw_output_arbiter_activity        21344                      
system.ruby.network.routers07.buffer_reads        23423                      
system.ruby.network.routers07.buffer_writes        23423                      
system.ruby.network.routers07.crossbar_activity        23423                      
system.ruby.network.routers07.pwrStateResidencyTicks::UNDEFINED    544917000                       # Cumulative time (in ticks) in various power states
system.ruby.network.routers07.sw_input_arbiter_activity        23947                      
system.ruby.network.routers07.sw_output_arbiter_activity        23423                      
system.ruby.network.routers08.buffer_reads        55334                      
system.ruby.network.routers08.buffer_writes        55334                      
system.ruby.network.routers08.crossbar_activity        55334                      
system.ruby.network.routers08.pwrStateResidencyTicks::UNDEFINED    544917000                       # Cumulative time (in ticks) in various power states
system.ruby.network.routers08.sw_input_arbiter_activity        57495                      
system.ruby.network.routers08.sw_output_arbiter_activity        55334                      
system.ruby.network.routers09.buffer_reads        26124                      
system.ruby.network.routers09.buffer_writes        26124                      
system.ruby.network.routers09.crossbar_activity        26124                      
system.ruby.network.routers09.pwrStateResidencyTicks::UNDEFINED    544917000                       # Cumulative time (in ticks) in various power states
system.ruby.network.routers09.sw_input_arbiter_activity        26382                      
system.ruby.network.routers09.sw_output_arbiter_activity        26124                      
system.ruby.network.routers10.buffer_reads        27030                      
system.ruby.network.routers10.buffer_writes        27030                      
system.ruby.network.routers10.crossbar_activity        27030                      
system.ruby.network.routers10.pwrStateResidencyTicks::UNDEFINED    544917000                       # Cumulative time (in ticks) in various power states
system.ruby.network.routers10.sw_input_arbiter_activity        27380                      
system.ruby.network.routers10.sw_output_arbiter_activity        27030                      
system.ruby.network.routers11.buffer_reads        35802                      
system.ruby.network.routers11.buffer_writes        35802                      
system.ruby.network.routers11.crossbar_activity        35802                      
system.ruby.network.routers11.pwrStateResidencyTicks::UNDEFINED    544917000                       # Cumulative time (in ticks) in various power states
system.ruby.network.routers11.sw_input_arbiter_activity        40050                      
system.ruby.network.routers11.sw_output_arbiter_activity        35802                      
system.ruby.network.routers12.buffer_reads        57328                      
system.ruby.network.routers12.buffer_writes        57328                      
system.ruby.network.routers12.crossbar_activity        57328                      
system.ruby.network.routers12.pwrStateResidencyTicks::UNDEFINED    544917000                       # Cumulative time (in ticks) in various power states
system.ruby.network.routers12.sw_input_arbiter_activity        62777                      
system.ruby.network.routers12.sw_output_arbiter_activity        57328                      
system.ruby.network.routers13.buffer_reads        34475                      
system.ruby.network.routers13.buffer_writes        34475                      
system.ruby.network.routers13.crossbar_activity        34475                      
system.ruby.network.routers13.pwrStateResidencyTicks::UNDEFINED    544917000                       # Cumulative time (in ticks) in various power states
system.ruby.network.routers13.sw_input_arbiter_activity        34896                      
system.ruby.network.routers13.sw_output_arbiter_activity        34475                      
system.ruby.network.routers14.buffer_reads        28781                      
system.ruby.network.routers14.buffer_writes        28781                      
system.ruby.network.routers14.crossbar_activity        28781                      
system.ruby.network.routers14.pwrStateResidencyTicks::UNDEFINED    544917000                       # Cumulative time (in ticks) in various power states
system.ruby.network.routers14.sw_input_arbiter_activity        29073                      
system.ruby.network.routers14.sw_output_arbiter_activity        28781                      
system.ruby.network.routers15.buffer_reads        26162                      
system.ruby.network.routers15.buffer_writes        26162                      
system.ruby.network.routers15.crossbar_activity        26162                      
system.ruby.network.routers15.pwrStateResidencyTicks::UNDEFINED    544917000                       # Cumulative time (in ticks) in various power states
system.ruby.network.routers15.sw_input_arbiter_activity        27260                      
system.ruby.network.routers15.sw_output_arbiter_activity        26162                      
system.ruby.outstanding_req_hist_seqr::bucket_size            1                      
system.ruby.outstanding_req_hist_seqr::max_bucket            9                      
system.ruby.outstanding_req_hist_seqr::samples       201096                      
system.ruby.outstanding_req_hist_seqr::mean            1                      
system.ruby.outstanding_req_hist_seqr::gmean            1                      
system.ruby.outstanding_req_hist_seqr    |           0      0.00%      0.00% |      201096    100.00%    100.00% |           0      0.00%    100.00% |           0      0.00%    100.00% |           0      0.00%    100.00% |           0      0.00%    100.00% |           0      0.00%    100.00% |           0      0.00%    100.00% |           0      0.00%    100.00% |           0      0.00%    100.00%
system.ruby.outstanding_req_hist_seqr::total       201096                      
system.ruby.pwrStateResidencyTicks::UNDEFINED    544917000                       # Cumulative time (in ticks) in various power states
system.sys_port_proxy.pwrStateResidencyTicks::UNDEFINED    544917000                       # Cumulative time (in ticks) in various power states
system.voltage_domain.voltage                       1                       # Voltage in Volts

---------- End Simulation Statistics   ----------
