
---------- Begin Simulation Statistics ----------
final_tick                                  785464000                       # Number of ticks from beginning of simulation (restored from checkpoints and never reset)
host_inst_rate                                  14865                       # Simulator instruction rate (inst/s)
host_mem_usage                                5159340                       # Number of bytes of host memory used
host_op_rate                                    14913                       # Simulator op (including micro ops) rate (op/s)
host_seconds                                     7.97                       # Real time elapsed on the host
host_tick_rate                               98573546                       # Simulator tick rate (ticks/s)
sim_freq                                 1000000000000                       # Frequency of simulated ticks
sim_insts                                      118446                       # Number of instructions simulated
sim_ops                                        118828                       # Number of ops (including micro ops) simulated
sim_seconds                                  0.000785                       # Number of seconds simulated
sim_ticks                                   785464000                       # Number of ticks simulated
system.clk_domain.clock                          1000                       # Clock period in ticks
system.cpu00.Branches                           22339                       # Number of branches fetched
system.cpu00.committedInsts                    100000                       # Number of instructions committed
system.cpu00.committedOps                      100293                       # Number of ops (including micro ops) committed
system.cpu00.dtb.accesses                           0                       # DTB accesses
system.cpu00.dtb.hits                               0                       # DTB hits
system.cpu00.dtb.misses                             0                       # DTB misses
system.cpu00.dtb.pwrStateResidencyTicks::UNDEFINED    785464000                       # Cumulative time (in ticks) in various power states
system.cpu00.dtb.read_accesses                      0                       # DTB read accesses
system.cpu00.dtb.read_hits                          0                       # DTB read hits
system.cpu00.dtb.read_misses                        0                       # DTB read misses
system.cpu00.dtb.write_accesses                     0                       # DTB write accesses
system.cpu00.dtb.write_hits                         0                       # DTB write hits
system.cpu00.dtb.write_misses                       0                       # DTB write misses
system.cpu00.idle_fraction                   0.003131                       # Percentage of idle cycles
system.cpu00.itb.accesses                           0                       # DTB accesses
system.cpu00.itb.hits                               0                       # DTB hits
system.cpu00.itb.misses                             0                       # DTB misses
system.cpu00.itb.pwrStateResidencyTicks::UNDEFINED    785464000                       # Cumulative time (in ticks) in various power states
system.cpu00.itb.read_accesses                      0                       # DTB read accesses
system.cpu00.itb.read_hits                          0                       # DTB read hits
system.cpu00.itb.read_misses                        0                       # DTB read misses
system.cpu00.itb.write_accesses                     0                       # DTB write accesses
system.cpu00.itb.write_hits                         0                       # DTB write hits
system.cpu00.itb.write_misses                       0                       # DTB write misses
system.cpu00.not_idle_fraction               0.996869                       # Percentage of non-idle cycles
system.cpu00.numCycles                        1570928                       # number of cpu cycles simulated
system.cpu00.numPwrStateTransitions                 2                       # Number of power state transitions
system.cpu00.numWorkItemsCompleted                  0                       # number of work items this cpu completed
system.cpu00.numWorkItemsStarted                    0                       # number of work items this cpu started
system.cpu00.num_busy_cycles             1566009.000006                       # Number of busy cycles
system.cpu00.num_conditional_control_insts        15917                       # number of instructions that are conditional controls
system.cpu00.num_fp_alu_accesses                   12                       # Number of float alu accesses
system.cpu00.num_fp_insts                          12                       # number of float instructions
system.cpu00.num_fp_register_reads                 12                       # number of times the floating registers were read
system.cpu00.num_fp_register_writes                 0                       # number of times the floating registers were written
system.cpu00.num_func_calls                      6422                       # number of times a function call or return occured
system.cpu00.num_idle_cycles              4918.999994                       # Number of idle cycles
system.cpu00.num_int_alu_accesses               98833                       # Number of integer alu accesses
system.cpu00.num_int_insts                      98833                       # number of integer instructions
system.cpu00.num_int_register_reads            120831                       # number of times the integer registers were read
system.cpu00.num_int_register_writes            64478                       # number of times the integer registers were written
system.cpu00.num_load_insts                     20292                       # Number of load instructions
system.cpu00.num_mem_refs                       36561                       # number of memory refs
system.cpu00.num_store_insts                    16269                       # Number of store instructions
system.cpu00.num_vec_alu_accesses                   0                       # Number of vector alu accesses
system.cpu00.num_vec_insts                          0                       # number of vector instructions
system.cpu00.num_vec_register_reads                 0                       # number of times the vector registers were read
system.cpu00.num_vec_register_writes                0                       # number of times the vector registers were written
system.cpu00.op_class::No_OpClass                 859      0.86%      0.86% # Class of executed instruction
system.cpu00.op_class::IntAlu                   62909     62.68%     63.54% # Class of executed instruction
system.cpu00.op_class::IntMult                     30      0.03%     63.57% # Class of executed instruction
system.cpu00.op_class::IntDiv                       6      0.01%     63.57% # Class of executed instruction
system.cpu00.op_class::FloatAdd                     0      0.00%     63.57% # Class of executed instruction
system.cpu00.op_class::FloatCmp                     0      0.00%     63.57% # Class of executed instruction
system.cpu00.op_class::FloatCvt                     0      0.00%     63.57% # Class of executed instruction
system.cpu00.op_class::FloatMult                    0      0.00%     63.57% # Class of executed instruction
system.cpu00.op_class::FloatMultAcc                 0      0.00%     63.57% # Class of executed instruction
system.cpu00.op_class::FloatDiv                     0      0.00%     63.57% # Class of executed instruction
system.cpu00.op_class::FloatMisc                    0      0.00%     63.57% # Class of executed instruction
system.cpu00.op_class::FloatSqrt                    0      0.00%     63.57% # Class of executed instruction
system.cpu00.op_class::SimdAdd                      0      0.00%     63.57% # Class of executed instruction
system.cpu00.op_class::SimdAddAcc                   0      0.00%     63.57% # Class of executed instruction
system.cpu00.op_class::SimdAlu                      0      0.00%     63.57% # Class of executed instruction
system.cpu00.op_class::SimdCmp                      0      0.00%     63.57% # Class of executed instruction
system.cpu00.op_class::SimdCvt                      0      0.00%     63.57% # Class of executed instruction
system.cpu00.op_class::SimdMisc                     0      0.00%     63.57% # Class of executed instruction
system.cpu00.op_class::SimdMult                     0      0.00%     63.57% # Class of executed instruction
system.cpu00.op_class::SimdMultAcc                  0      0.00%     63.57% # Class of executed instruction
system.cpu00.op_class::SimdShift                    0      0.00%     63.57% # Class of executed instruction
system.cpu00.op_class::SimdShiftAcc                 0      0.00%     63.57% # Class of executed instruction
system.cpu00.op_class::SimdSqrt                     0      0.00%     63.57% # Class of executed instruction
system.cpu00.op_class::SimdFloatAdd                 0      0.00%     63.57% # Class of executed instruction
system.cpu00.op_class::SimdFloatAlu                 0      0.00%     63.57% # Class of executed instruction
system.cpu00.op_class::SimdFloatCmp                 0      0.00%     63.57% # Class of executed instruction
system.cpu00.op_class::SimdFloatCvt                 0      0.00%     63.57% # Class of executed instruction
system.cpu00.op_class::SimdFloatDiv                 0      0.00%     63.57% # Class of executed instruction
system.cpu00.op_class::SimdFloatMisc                0      0.00%     63.57% # Class of executed instruction
system.cpu00.op_class::SimdFloatMult                0      0.00%     63.57% # Class of executed instruction
system.cpu00.op_class::SimdFloatMultAcc             0      0.00%     63.57% # Class of executed instruction
system.cpu00.op_class::SimdFloatSqrt                0      0.00%     63.57% # Class of executed instruction
system.cpu00.op_class::SimdAes                      0      0.00%     63.57% # Class of executed instruction
system.cpu00.op_class::SimdAesMix                   0      0.00%     63.57% # Class of executed instruction
system.cpu00.op_class::SimdSha1Hash                 0      0.00%     63.57% # Class of executed instruction
system.cpu00.op_class::SimdSha1Hash2                0      0.00%     63.57% # Class of executed instruction
system.cpu00.op_class::SimdSha256Hash               0      0.00%     63.57% # Class of executed instruction
system.cpu00.op_class::SimdSha256Hash2              0      0.00%     63.57% # Class of executed instruction
system.cpu00.op_class::SimdShaSigma2                0      0.00%     63.57% # Class of executed instruction
system.cpu00.op_class::SimdShaSigma3                0      0.00%     63.57% # Class of executed instruction
system.cpu00.op_class::MemRead                  20577     20.50%     84.07% # Class of executed instruction
system.cpu00.op_class::MemWrite                 15972     15.91%     99.99% # Class of executed instruction
system.cpu00.op_class::FloatMemRead                 0      0.00%     99.99% # Class of executed instruction
system.cpu00.op_class::FloatMemWrite               12      0.01%    100.00% # Class of executed instruction
system.cpu00.op_class::IprAccess                    0      0.00%    100.00% # Class of executed instruction
system.cpu00.op_class::InstPrefetch                 0      0.00%    100.00% # Class of executed instruction
system.cpu00.op_class::total                   100365                       # Class of executed instruction
system.cpu00.pwrStateClkGateDist::samples            1                       # Distribution of time spent in the clock gated state
system.cpu00.pwrStateClkGateDist::mean        2459500                       # Distribution of time spent in the clock gated state
system.cpu00.pwrStateClkGateDist::1000-5e+10            1    100.00%    100.00% # Distribution of time spent in the clock gated state
system.cpu00.pwrStateClkGateDist::min_value      2459500                       # Distribution of time spent in the clock gated state
system.cpu00.pwrStateClkGateDist::max_value      2459500                       # Distribution of time spent in the clock gated state
system.cpu00.pwrStateClkGateDist::total             1                       # Distribution of time spent in the clock gated state
system.cpu00.pwrStateResidencyTicks::ON     783004500                       # Cumulative time (in ticks) in various power states
system.cpu00.pwrStateResidencyTicks::CLK_GATED      2459500                       # Cumulative time (in ticks) in various power states
system.cpu00.workload.numSyscalls                  71                       # Number of system calls
system.cpu01.Branches                             220                       # Number of branches fetched
system.cpu01.committedInsts                      1128                       # Number of instructions committed
system.cpu01.committedOps                        1134                       # Number of ops (including micro ops) committed
system.cpu01.dtb.accesses                           0                       # DTB accesses
system.cpu01.dtb.hits                               0                       # DTB hits
system.cpu01.dtb.misses                             0                       # DTB misses
system.cpu01.dtb.pwrStateResidencyTicks::UNDEFINED    785464000                       # Cumulative time (in ticks) in various power states
system.cpu01.dtb.read_accesses                      0                       # DTB read accesses
system.cpu01.dtb.read_hits                          0                       # DTB read hits
system.cpu01.dtb.read_misses                        0                       # DTB read misses
system.cpu01.dtb.write_accesses                     0                       # DTB write accesses
system.cpu01.dtb.write_hits                         0                       # DTB write hits
system.cpu01.dtb.write_misses                       0                       # DTB write misses
system.cpu01.idle_fraction                   0.980012                       # Percentage of idle cycles
system.cpu01.itb.accesses                           0                       # DTB accesses
system.cpu01.itb.hits                               0                       # DTB hits
system.cpu01.itb.misses                             0                       # DTB misses
system.cpu01.itb.pwrStateResidencyTicks::UNDEFINED    785464000                       # Cumulative time (in ticks) in various power states
system.cpu01.itb.read_accesses                      0                       # DTB read accesses
system.cpu01.itb.read_hits                          0                       # DTB read hits
system.cpu01.itb.read_misses                        0                       # DTB read misses
system.cpu01.itb.write_accesses                     0                       # DTB write accesses
system.cpu01.itb.write_hits                         0                       # DTB write hits
system.cpu01.itb.write_misses                       0                       # DTB write misses
system.cpu01.not_idle_fraction               0.019988                       # Percentage of non-idle cycles
system.cpu01.numCycles                        1570853                       # number of cpu cycles simulated
system.cpu01.numPwrStateTransitions                 2                       # Number of power state transitions
system.cpu01.numWorkItemsCompleted                  0                       # number of work items this cpu completed
system.cpu01.numWorkItemsStarted                    0                       # number of work items this cpu started
system.cpu01.num_busy_cycles             31397.502894                       # Number of busy cycles
system.cpu01.num_conditional_control_insts          116                       # number of instructions that are conditional controls
system.cpu01.num_fp_alu_accesses                   12                       # Number of float alu accesses
system.cpu01.num_fp_insts                          12                       # number of float instructions
system.cpu01.num_fp_register_reads                 12                       # number of times the floating registers were read
system.cpu01.num_fp_register_writes                 0                       # number of times the floating registers were written
system.cpu01.num_func_calls                       104                       # number of times a function call or return occured
system.cpu01.num_idle_cycles             1539455.497106                       # Number of idle cycles
system.cpu01.num_int_alu_accesses                1110                       # Number of integer alu accesses
system.cpu01.num_int_insts                       1110                       # number of integer instructions
system.cpu01.num_int_register_reads              1296                       # number of times the integer registers were read
system.cpu01.num_int_register_writes              777                       # number of times the integer registers were written
system.cpu01.num_load_insts                       254                       # Number of load instructions
system.cpu01.num_mem_refs                         436                       # number of memory refs
system.cpu01.num_store_insts                      182                       # Number of store instructions
system.cpu01.num_vec_alu_accesses                   0                       # Number of vector alu accesses
system.cpu01.num_vec_insts                          0                       # number of vector instructions
system.cpu01.num_vec_register_reads                 0                       # number of times the vector registers were read
system.cpu01.num_vec_register_writes                0                       # number of times the vector registers were written
system.cpu01.op_class::No_OpClass                  10      0.88%      0.88% # Class of executed instruction
system.cpu01.op_class::IntAlu                     687     60.48%     61.36% # Class of executed instruction
system.cpu01.op_class::IntMult                      1      0.09%     61.44% # Class of executed instruction
system.cpu01.op_class::IntDiv                       2      0.18%     61.62% # Class of executed instruction
system.cpu01.op_class::FloatAdd                     0      0.00%     61.62% # Class of executed instruction
system.cpu01.op_class::FloatCmp                     0      0.00%     61.62% # Class of executed instruction
system.cpu01.op_class::FloatCvt                     0      0.00%     61.62% # Class of executed instruction
system.cpu01.op_class::FloatMult                    0      0.00%     61.62% # Class of executed instruction
system.cpu01.op_class::FloatMultAcc                 0      0.00%     61.62% # Class of executed instruction
system.cpu01.op_class::FloatDiv                     0      0.00%     61.62% # Class of executed instruction
system.cpu01.op_class::FloatMisc                    0      0.00%     61.62% # Class of executed instruction
system.cpu01.op_class::FloatSqrt                    0      0.00%     61.62% # Class of executed instruction
system.cpu01.op_class::SimdAdd                      0      0.00%     61.62% # Class of executed instruction
system.cpu01.op_class::SimdAddAcc                   0      0.00%     61.62% # Class of executed instruction
system.cpu01.op_class::SimdAlu                      0      0.00%     61.62% # Class of executed instruction
system.cpu01.op_class::SimdCmp                      0      0.00%     61.62% # Class of executed instruction
system.cpu01.op_class::SimdCvt                      0      0.00%     61.62% # Class of executed instruction
system.cpu01.op_class::SimdMisc                     0      0.00%     61.62% # Class of executed instruction
system.cpu01.op_class::SimdMult                     0      0.00%     61.62% # Class of executed instruction
system.cpu01.op_class::SimdMultAcc                  0      0.00%     61.62% # Class of executed instruction
system.cpu01.op_class::SimdShift                    0      0.00%     61.62% # Class of executed instruction
system.cpu01.op_class::SimdShiftAcc                 0      0.00%     61.62% # Class of executed instruction
system.cpu01.op_class::SimdSqrt                     0      0.00%     61.62% # Class of executed instruction
system.cpu01.op_class::SimdFloatAdd                 0      0.00%     61.62% # Class of executed instruction
system.cpu01.op_class::SimdFloatAlu                 0      0.00%     61.62% # Class of executed instruction
system.cpu01.op_class::SimdFloatCmp                 0      0.00%     61.62% # Class of executed instruction
system.cpu01.op_class::SimdFloatCvt                 0      0.00%     61.62% # Class of executed instruction
system.cpu01.op_class::SimdFloatDiv                 0      0.00%     61.62% # Class of executed instruction
system.cpu01.op_class::SimdFloatMisc                0      0.00%     61.62% # Class of executed instruction
system.cpu01.op_class::SimdFloatMult                0      0.00%     61.62% # Class of executed instruction
system.cpu01.op_class::SimdFloatMultAcc             0      0.00%     61.62% # Class of executed instruction
system.cpu01.op_class::SimdFloatSqrt                0      0.00%     61.62% # Class of executed instruction
system.cpu01.op_class::SimdAes                      0      0.00%     61.62% # Class of executed instruction
system.cpu01.op_class::SimdAesMix                   0      0.00%     61.62% # Class of executed instruction
system.cpu01.op_class::SimdSha1Hash                 0      0.00%     61.62% # Class of executed instruction
system.cpu01.op_class::SimdSha1Hash2                0      0.00%     61.62% # Class of executed instruction
system.cpu01.op_class::SimdSha256Hash               0      0.00%     61.62% # Class of executed instruction
system.cpu01.op_class::SimdSha256Hash2              0      0.00%     61.62% # Class of executed instruction
system.cpu01.op_class::SimdShaSigma2                0      0.00%     61.62% # Class of executed instruction
system.cpu01.op_class::SimdShaSigma3                0      0.00%     61.62% # Class of executed instruction
system.cpu01.op_class::MemRead                    258     22.71%     84.33% # Class of executed instruction
system.cpu01.op_class::MemWrite                   166     14.61%     98.94% # Class of executed instruction
system.cpu01.op_class::FloatMemRead                 0      0.00%     98.94% # Class of executed instruction
system.cpu01.op_class::FloatMemWrite               12      1.06%    100.00% # Class of executed instruction
system.cpu01.op_class::IprAccess                    0      0.00%    100.00% # Class of executed instruction
system.cpu01.op_class::InstPrefetch                 0      0.00%    100.00% # Class of executed instruction
system.cpu01.op_class::total                     1136                       # Class of executed instruction
system.cpu01.pwrStateClkGateDist::samples            1                       # Distribution of time spent in the clock gated state
system.cpu01.pwrStateClkGateDist::mean      169299000                       # Distribution of time spent in the clock gated state
system.cpu01.pwrStateClkGateDist::1000-5e+10            1    100.00%    100.00% # Distribution of time spent in the clock gated state
system.cpu01.pwrStateClkGateDist::min_value    169299000                       # Distribution of time spent in the clock gated state
system.cpu01.pwrStateClkGateDist::max_value    169299000                       # Distribution of time spent in the clock gated state
system.cpu01.pwrStateClkGateDist::total             1                       # Distribution of time spent in the clock gated state
system.cpu01.pwrStateResidencyTicks::ON     616165000                       # Cumulative time (in ticks) in various power states
system.cpu01.pwrStateResidencyTicks::CLK_GATED    169299000                       # Cumulative time (in ticks) in various power states
system.cpu02.Branches                             254                       # Number of branches fetched
system.cpu02.committedInsts                      1300                       # Number of instructions committed
system.cpu02.committedOps                        1306                       # Number of ops (including micro ops) committed
system.cpu02.dtb.accesses                           0                       # DTB accesses
system.cpu02.dtb.hits                               0                       # DTB hits
system.cpu02.dtb.misses                             0                       # DTB misses
system.cpu02.dtb.pwrStateResidencyTicks::UNDEFINED    785464000                       # Cumulative time (in ticks) in various power states
system.cpu02.dtb.read_accesses                      0                       # DTB read accesses
system.cpu02.dtb.read_hits                          0                       # DTB read hits
system.cpu02.dtb.read_misses                        0                       # DTB read misses
system.cpu02.dtb.write_accesses                     0                       # DTB write accesses
system.cpu02.dtb.write_hits                         0                       # DTB write hits
system.cpu02.dtb.write_misses                       0                       # DTB write misses
system.cpu02.idle_fraction                   0.982428                       # Percentage of idle cycles
system.cpu02.itb.accesses                           0                       # DTB accesses
system.cpu02.itb.hits                               0                       # DTB hits
system.cpu02.itb.misses                             0                       # DTB misses
system.cpu02.itb.pwrStateResidencyTicks::UNDEFINED    785464000                       # Cumulative time (in ticks) in various power states
system.cpu02.itb.read_accesses                      0                       # DTB read accesses
system.cpu02.itb.read_hits                          0                       # DTB read hits
system.cpu02.itb.read_misses                        0                       # DTB read misses
system.cpu02.itb.write_accesses                     0                       # DTB write accesses
system.cpu02.itb.write_hits                         0                       # DTB write hits
system.cpu02.itb.write_misses                       0                       # DTB write misses
system.cpu02.not_idle_fraction               0.017572                       # Percentage of non-idle cycles
system.cpu02.numCycles                        1570791                       # number of cpu cycles simulated
system.cpu02.numPwrStateTransitions                 2                       # Number of power state transitions
system.cpu02.numWorkItemsCompleted                  0                       # number of work items this cpu completed
system.cpu02.numWorkItemsStarted                    0                       # number of work items this cpu started
system.cpu02.num_busy_cycles             27601.594631                       # Number of busy cycles
system.cpu02.num_conditional_control_insts          135                       # number of instructions that are conditional controls
system.cpu02.num_fp_alu_accesses                   12                       # Number of float alu accesses
system.cpu02.num_fp_insts                          12                       # number of float instructions
system.cpu02.num_fp_register_reads                 12                       # number of times the floating registers were read
system.cpu02.num_fp_register_writes                 0                       # number of times the floating registers were written
system.cpu02.num_func_calls                       119                       # number of times a function call or return occured
system.cpu02.num_idle_cycles             1543189.405369                       # Number of idle cycles
system.cpu02.num_int_alu_accesses                1279                       # Number of integer alu accesses
system.cpu02.num_int_insts                       1279                       # number of integer instructions
system.cpu02.num_int_register_reads              1494                       # number of times the integer registers were read
system.cpu02.num_int_register_writes              904                       # number of times the integer registers were written
system.cpu02.num_load_insts                       298                       # Number of load instructions
system.cpu02.num_mem_refs                         497                       # number of memory refs
system.cpu02.num_store_insts                      199                       # Number of store instructions
system.cpu02.num_vec_alu_accesses                   0                       # Number of vector alu accesses
system.cpu02.num_vec_insts                          0                       # number of vector instructions
system.cpu02.num_vec_register_reads                 0                       # number of times the vector registers were read
system.cpu02.num_vec_register_writes                0                       # number of times the vector registers were written
system.cpu02.op_class::No_OpClass                  10      0.76%      0.76% # Class of executed instruction
system.cpu02.op_class::IntAlu                     798     61.01%     61.77% # Class of executed instruction
system.cpu02.op_class::IntMult                      1      0.08%     61.85% # Class of executed instruction
system.cpu02.op_class::IntDiv                       2      0.15%     62.00% # Class of executed instruction
system.cpu02.op_class::FloatAdd                     0      0.00%     62.00% # Class of executed instruction
system.cpu02.op_class::FloatCmp                     0      0.00%     62.00% # Class of executed instruction
system.cpu02.op_class::FloatCvt                     0      0.00%     62.00% # Class of executed instruction
system.cpu02.op_class::FloatMult                    0      0.00%     62.00% # Class of executed instruction
system.cpu02.op_class::FloatMultAcc                 0      0.00%     62.00% # Class of executed instruction
system.cpu02.op_class::FloatDiv                     0      0.00%     62.00% # Class of executed instruction
system.cpu02.op_class::FloatMisc                    0      0.00%     62.00% # Class of executed instruction
system.cpu02.op_class::FloatSqrt                    0      0.00%     62.00% # Class of executed instruction
system.cpu02.op_class::SimdAdd                      0      0.00%     62.00% # Class of executed instruction
system.cpu02.op_class::SimdAddAcc                   0      0.00%     62.00% # Class of executed instruction
system.cpu02.op_class::SimdAlu                      0      0.00%     62.00% # Class of executed instruction
system.cpu02.op_class::SimdCmp                      0      0.00%     62.00% # Class of executed instruction
system.cpu02.op_class::SimdCvt                      0      0.00%     62.00% # Class of executed instruction
system.cpu02.op_class::SimdMisc                     0      0.00%     62.00% # Class of executed instruction
system.cpu02.op_class::SimdMult                     0      0.00%     62.00% # Class of executed instruction
system.cpu02.op_class::SimdMultAcc                  0      0.00%     62.00% # Class of executed instruction
system.cpu02.op_class::SimdShift                    0      0.00%     62.00% # Class of executed instruction
system.cpu02.op_class::SimdShiftAcc                 0      0.00%     62.00% # Class of executed instruction
system.cpu02.op_class::SimdSqrt                     0      0.00%     62.00% # Class of executed instruction
system.cpu02.op_class::SimdFloatAdd                 0      0.00%     62.00% # Class of executed instruction
system.cpu02.op_class::SimdFloatAlu                 0      0.00%     62.00% # Class of executed instruction
system.cpu02.op_class::SimdFloatCmp                 0      0.00%     62.00% # Class of executed instruction
system.cpu02.op_class::SimdFloatCvt                 0      0.00%     62.00% # Class of executed instruction
system.cpu02.op_class::SimdFloatDiv                 0      0.00%     62.00% # Class of executed instruction
system.cpu02.op_class::SimdFloatMisc                0      0.00%     62.00% # Class of executed instruction
system.cpu02.op_class::SimdFloatMult                0      0.00%     62.00% # Class of executed instruction
system.cpu02.op_class::SimdFloatMultAcc             0      0.00%     62.00% # Class of executed instruction
system.cpu02.op_class::SimdFloatSqrt                0      0.00%     62.00% # Class of executed instruction
system.cpu02.op_class::SimdAes                      0      0.00%     62.00% # Class of executed instruction
system.cpu02.op_class::SimdAesMix                   0      0.00%     62.00% # Class of executed instruction
system.cpu02.op_class::SimdSha1Hash                 0      0.00%     62.00% # Class of executed instruction
system.cpu02.op_class::SimdSha1Hash2                0      0.00%     62.00% # Class of executed instruction
system.cpu02.op_class::SimdSha256Hash               0      0.00%     62.00% # Class of executed instruction
system.cpu02.op_class::SimdSha256Hash2              0      0.00%     62.00% # Class of executed instruction
system.cpu02.op_class::SimdShaSigma2                0      0.00%     62.00% # Class of executed instruction
system.cpu02.op_class::SimdShaSigma3                0      0.00%     62.00% # Class of executed instruction
system.cpu02.op_class::MemRead                    302     23.09%     85.09% # Class of executed instruction
system.cpu02.op_class::MemWrite                   183     13.99%     99.08% # Class of executed instruction
system.cpu02.op_class::FloatMemRead                 0      0.00%     99.08% # Class of executed instruction
system.cpu02.op_class::FloatMemWrite               12      0.92%    100.00% # Class of executed instruction
system.cpu02.op_class::IprAccess                    0      0.00%    100.00% # Class of executed instruction
system.cpu02.op_class::InstPrefetch                 0      0.00%    100.00% # Class of executed instruction
system.cpu02.op_class::total                     1308                       # Class of executed instruction
system.cpu02.pwrStateClkGateDist::samples            1                       # Distribution of time spent in the clock gated state
system.cpu02.pwrStateClkGateDist::mean      158993500                       # Distribution of time spent in the clock gated state
system.cpu02.pwrStateClkGateDist::1000-5e+10            1    100.00%    100.00% # Distribution of time spent in the clock gated state
system.cpu02.pwrStateClkGateDist::min_value    158993500                       # Distribution of time spent in the clock gated state
system.cpu02.pwrStateClkGateDist::max_value    158993500                       # Distribution of time spent in the clock gated state
system.cpu02.pwrStateClkGateDist::total             1                       # Distribution of time spent in the clock gated state
system.cpu02.pwrStateResidencyTicks::ON     626470500                       # Cumulative time (in ticks) in various power states
system.cpu02.pwrStateResidencyTicks::CLK_GATED    158993500                       # Cumulative time (in ticks) in various power states
system.cpu03.Branches                             249                       # Number of branches fetched
system.cpu03.committedInsts                      1276                       # Number of instructions committed
system.cpu03.committedOps                        1282                       # Number of ops (including micro ops) committed
system.cpu03.dtb.accesses                           0                       # DTB accesses
system.cpu03.dtb.hits                               0                       # DTB hits
system.cpu03.dtb.misses                             0                       # DTB misses
system.cpu03.dtb.pwrStateResidencyTicks::UNDEFINED    785464000                       # Cumulative time (in ticks) in various power states
system.cpu03.dtb.read_accesses                      0                       # DTB read accesses
system.cpu03.dtb.read_hits                          0                       # DTB read hits
system.cpu03.dtb.read_misses                        0                       # DTB read misses
system.cpu03.dtb.write_accesses                     0                       # DTB write accesses
system.cpu03.dtb.write_hits                         0                       # DTB write hits
system.cpu03.dtb.write_misses                       0                       # DTB write misses
system.cpu03.idle_fraction                   0.982065                       # Percentage of idle cycles
system.cpu03.itb.accesses                           0                       # DTB accesses
system.cpu03.itb.hits                               0                       # DTB hits
system.cpu03.itb.misses                             0                       # DTB misses
system.cpu03.itb.pwrStateResidencyTicks::UNDEFINED    785464000                       # Cumulative time (in ticks) in various power states
system.cpu03.itb.read_accesses                      0                       # DTB read accesses
system.cpu03.itb.read_hits                          0                       # DTB read hits
system.cpu03.itb.read_misses                        0                       # DTB read misses
system.cpu03.itb.write_accesses                     0                       # DTB write accesses
system.cpu03.itb.write_hits                         0                       # DTB write hits
system.cpu03.itb.write_misses                       0                       # DTB write misses
system.cpu03.not_idle_fraction               0.017935                       # Percentage of non-idle cycles
system.cpu03.numCycles                        1570816                       # number of cpu cycles simulated
system.cpu03.numPwrStateTransitions                 2                       # Number of power state transitions
system.cpu03.numWorkItemsCompleted                  0                       # number of work items this cpu completed
system.cpu03.numWorkItemsStarted                    0                       # number of work items this cpu started
system.cpu03.num_busy_cycles             28172.993215                       # Number of busy cycles
system.cpu03.num_conditional_control_insts          128                       # number of instructions that are conditional controls
system.cpu03.num_fp_alu_accesses                   12                       # Number of float alu accesses
system.cpu03.num_fp_insts                          12                       # number of float instructions
system.cpu03.num_fp_register_reads                 12                       # number of times the floating registers were read
system.cpu03.num_fp_register_writes                 0                       # number of times the floating registers were written
system.cpu03.num_func_calls                       121                       # number of times a function call or return occured
system.cpu03.num_idle_cycles             1542643.006785                       # Number of idle cycles
system.cpu03.num_int_alu_accesses                1252                       # Number of integer alu accesses
system.cpu03.num_int_insts                       1252                       # number of integer instructions
system.cpu03.num_int_register_reads              1460                       # number of times the integer registers were read
system.cpu03.num_int_register_writes              885                       # number of times the integer registers were written
system.cpu03.num_load_insts                       291                       # Number of load instructions
system.cpu03.num_mem_refs                         488                       # number of memory refs
system.cpu03.num_store_insts                      197                       # Number of store instructions
system.cpu03.num_vec_alu_accesses                   0                       # Number of vector alu accesses
system.cpu03.num_vec_insts                          0                       # number of vector instructions
system.cpu03.num_vec_register_reads                 0                       # number of times the vector registers were read
system.cpu03.num_vec_register_writes                0                       # number of times the vector registers were written
system.cpu03.op_class::No_OpClass                  10      0.78%      0.78% # Class of executed instruction
system.cpu03.op_class::IntAlu                     783     60.98%     61.76% # Class of executed instruction
system.cpu03.op_class::IntMult                      1      0.08%     61.84% # Class of executed instruction
system.cpu03.op_class::IntDiv                       2      0.16%     61.99% # Class of executed instruction
system.cpu03.op_class::FloatAdd                     0      0.00%     61.99% # Class of executed instruction
system.cpu03.op_class::FloatCmp                     0      0.00%     61.99% # Class of executed instruction
system.cpu03.op_class::FloatCvt                     0      0.00%     61.99% # Class of executed instruction
system.cpu03.op_class::FloatMult                    0      0.00%     61.99% # Class of executed instruction
system.cpu03.op_class::FloatMultAcc                 0      0.00%     61.99% # Class of executed instruction
system.cpu03.op_class::FloatDiv                     0      0.00%     61.99% # Class of executed instruction
system.cpu03.op_class::FloatMisc                    0      0.00%     61.99% # Class of executed instruction
system.cpu03.op_class::FloatSqrt                    0      0.00%     61.99% # Class of executed instruction
system.cpu03.op_class::SimdAdd                      0      0.00%     61.99% # Class of executed instruction
system.cpu03.op_class::SimdAddAcc                   0      0.00%     61.99% # Class of executed instruction
system.cpu03.op_class::SimdAlu                      0      0.00%     61.99% # Class of executed instruction
system.cpu03.op_class::SimdCmp                      0      0.00%     61.99% # Class of executed instruction
system.cpu03.op_class::SimdCvt                      0      0.00%     61.99% # Class of executed instruction
system.cpu03.op_class::SimdMisc                     0      0.00%     61.99% # Class of executed instruction
system.cpu03.op_class::SimdMult                     0      0.00%     61.99% # Class of executed instruction
system.cpu03.op_class::SimdMultAcc                  0      0.00%     61.99% # Class of executed instruction
system.cpu03.op_class::SimdShift                    0      0.00%     61.99% # Class of executed instruction
system.cpu03.op_class::SimdShiftAcc                 0      0.00%     61.99% # Class of executed instruction
system.cpu03.op_class::SimdSqrt                     0      0.00%     61.99% # Class of executed instruction
system.cpu03.op_class::SimdFloatAdd                 0      0.00%     61.99% # Class of executed instruction
system.cpu03.op_class::SimdFloatAlu                 0      0.00%     61.99% # Class of executed instruction
system.cpu03.op_class::SimdFloatCmp                 0      0.00%     61.99% # Class of executed instruction
system.cpu03.op_class::SimdFloatCvt                 0      0.00%     61.99% # Class of executed instruction
system.cpu03.op_class::SimdFloatDiv                 0      0.00%     61.99% # Class of executed instruction
system.cpu03.op_class::SimdFloatMisc                0      0.00%     61.99% # Class of executed instruction
system.cpu03.op_class::SimdFloatMult                0      0.00%     61.99% # Class of executed instruction
system.cpu03.op_class::SimdFloatMultAcc             0      0.00%     61.99% # Class of executed instruction
system.cpu03.op_class::SimdFloatSqrt                0      0.00%     61.99% # Class of executed instruction
system.cpu03.op_class::SimdAes                      0      0.00%     61.99% # Class of executed instruction
system.cpu03.op_class::SimdAesMix                   0      0.00%     61.99% # Class of executed instruction
system.cpu03.op_class::SimdSha1Hash                 0      0.00%     61.99% # Class of executed instruction
system.cpu03.op_class::SimdSha1Hash2                0      0.00%     61.99% # Class of executed instruction
system.cpu03.op_class::SimdSha256Hash               0      0.00%     61.99% # Class of executed instruction
system.cpu03.op_class::SimdSha256Hash2              0      0.00%     61.99% # Class of executed instruction
system.cpu03.op_class::SimdShaSigma2                0      0.00%     61.99% # Class of executed instruction
system.cpu03.op_class::SimdShaSigma3                0      0.00%     61.99% # Class of executed instruction
system.cpu03.op_class::MemRead                    295     22.98%     84.97% # Class of executed instruction
system.cpu03.op_class::MemWrite                   181     14.10%     99.07% # Class of executed instruction
system.cpu03.op_class::FloatMemRead                 0      0.00%     99.07% # Class of executed instruction
system.cpu03.op_class::FloatMemWrite               12      0.93%    100.00% # Class of executed instruction
system.cpu03.op_class::IprAccess                    0      0.00%    100.00% # Class of executed instruction
system.cpu03.op_class::InstPrefetch                 0      0.00%    100.00% # Class of executed instruction
system.cpu03.op_class::total                     1284                       # Class of executed instruction
system.cpu03.pwrStateClkGateDist::samples            1                       # Distribution of time spent in the clock gated state
system.cpu03.pwrStateClkGateDist::mean      146210500                       # Distribution of time spent in the clock gated state
system.cpu03.pwrStateClkGateDist::1000-5e+10            1    100.00%    100.00% # Distribution of time spent in the clock gated state
system.cpu03.pwrStateClkGateDist::min_value    146210500                       # Distribution of time spent in the clock gated state
system.cpu03.pwrStateClkGateDist::max_value    146210500                       # Distribution of time spent in the clock gated state
system.cpu03.pwrStateClkGateDist::total             1                       # Distribution of time spent in the clock gated state
system.cpu03.pwrStateResidencyTicks::ON     639253500                       # Cumulative time (in ticks) in various power states
system.cpu03.pwrStateResidencyTicks::CLK_GATED    146210500                       # Cumulative time (in ticks) in various power states
system.cpu04.Branches                             236                       # Number of branches fetched
system.cpu04.committedInsts                      1208                       # Number of instructions committed
system.cpu04.committedOps                        1214                       # Number of ops (including micro ops) committed
system.cpu04.dtb.accesses                           0                       # DTB accesses
system.cpu04.dtb.hits                               0                       # DTB hits
system.cpu04.dtb.misses                             0                       # DTB misses
system.cpu04.dtb.pwrStateResidencyTicks::UNDEFINED    785464000                       # Cumulative time (in ticks) in various power states
system.cpu04.dtb.read_accesses                      0                       # DTB read accesses
system.cpu04.dtb.read_hits                          0                       # DTB read hits
system.cpu04.dtb.read_misses                        0                       # DTB read misses
system.cpu04.dtb.write_accesses                     0                       # DTB write accesses
system.cpu04.dtb.write_hits                         0                       # DTB write hits
system.cpu04.dtb.write_misses                       0                       # DTB write misses
system.cpu04.idle_fraction                   0.981805                       # Percentage of idle cycles
system.cpu04.itb.accesses                           0                       # DTB accesses
system.cpu04.itb.hits                               0                       # DTB hits
system.cpu04.itb.misses                             0                       # DTB misses
system.cpu04.itb.pwrStateResidencyTicks::UNDEFINED    785464000                       # Cumulative time (in ticks) in various power states
system.cpu04.itb.read_accesses                      0                       # DTB read accesses
system.cpu04.itb.read_hits                          0                       # DTB read hits
system.cpu04.itb.read_misses                        0                       # DTB read misses
system.cpu04.itb.write_accesses                     0                       # DTB write accesses
system.cpu04.itb.write_hits                         0                       # DTB write hits
system.cpu04.itb.write_misses                       0                       # DTB write misses
system.cpu04.not_idle_fraction               0.018195                       # Percentage of non-idle cycles
system.cpu04.numCycles                        1570795                       # number of cpu cycles simulated
system.cpu04.numPwrStateTransitions                 2                       # Number of power state transitions
system.cpu04.numWorkItemsCompleted                  0                       # number of work items this cpu completed
system.cpu04.numWorkItemsStarted                    0                       # number of work items this cpu started
system.cpu04.num_busy_cycles             28580.582031                       # Number of busy cycles
system.cpu04.num_conditional_control_insts          122                       # number of instructions that are conditional controls
system.cpu04.num_fp_alu_accesses                   12                       # Number of float alu accesses
system.cpu04.num_fp_insts                          12                       # number of float instructions
system.cpu04.num_fp_register_reads                 12                       # number of times the floating registers were read
system.cpu04.num_fp_register_writes                 0                       # number of times the floating registers were written
system.cpu04.num_func_calls                       114                       # number of times a function call or return occured
system.cpu04.num_idle_cycles             1542214.417969                       # Number of idle cycles
system.cpu04.num_int_alu_accesses                1186                       # Number of integer alu accesses
system.cpu04.num_int_insts                       1186                       # number of integer instructions
system.cpu04.num_int_register_reads              1384                       # number of times the integer registers were read
system.cpu04.num_int_register_writes              835                       # number of times the integer registers were written
system.cpu04.num_load_insts                       274                       # Number of load instructions
system.cpu04.num_mem_refs                         464                       # number of memory refs
system.cpu04.num_store_insts                      190                       # Number of store instructions
system.cpu04.num_vec_alu_accesses                   0                       # Number of vector alu accesses
system.cpu04.num_vec_insts                          0                       # number of vector instructions
system.cpu04.num_vec_register_reads                 0                       # number of times the vector registers were read
system.cpu04.num_vec_register_writes                0                       # number of times the vector registers were written
system.cpu04.op_class::No_OpClass                  10      0.82%      0.82% # Class of executed instruction
system.cpu04.op_class::IntAlu                     739     60.77%     61.60% # Class of executed instruction
system.cpu04.op_class::IntMult                      1      0.08%     61.68% # Class of executed instruction
system.cpu04.op_class::IntDiv                       2      0.16%     61.84% # Class of executed instruction
system.cpu04.op_class::FloatAdd                     0      0.00%     61.84% # Class of executed instruction
system.cpu04.op_class::FloatCmp                     0      0.00%     61.84% # Class of executed instruction
system.cpu04.op_class::FloatCvt                     0      0.00%     61.84% # Class of executed instruction
system.cpu04.op_class::FloatMult                    0      0.00%     61.84% # Class of executed instruction
system.cpu04.op_class::FloatMultAcc                 0      0.00%     61.84% # Class of executed instruction
system.cpu04.op_class::FloatDiv                     0      0.00%     61.84% # Class of executed instruction
system.cpu04.op_class::FloatMisc                    0      0.00%     61.84% # Class of executed instruction
system.cpu04.op_class::FloatSqrt                    0      0.00%     61.84% # Class of executed instruction
system.cpu04.op_class::SimdAdd                      0      0.00%     61.84% # Class of executed instruction
system.cpu04.op_class::SimdAddAcc                   0      0.00%     61.84% # Class of executed instruction
system.cpu04.op_class::SimdAlu                      0      0.00%     61.84% # Class of executed instruction
system.cpu04.op_class::SimdCmp                      0      0.00%     61.84% # Class of executed instruction
system.cpu04.op_class::SimdCvt                      0      0.00%     61.84% # Class of executed instruction
system.cpu04.op_class::SimdMisc                     0      0.00%     61.84% # Class of executed instruction
system.cpu04.op_class::SimdMult                     0      0.00%     61.84% # Class of executed instruction
system.cpu04.op_class::SimdMultAcc                  0      0.00%     61.84% # Class of executed instruction
system.cpu04.op_class::SimdShift                    0      0.00%     61.84% # Class of executed instruction
system.cpu04.op_class::SimdShiftAcc                 0      0.00%     61.84% # Class of executed instruction
system.cpu04.op_class::SimdSqrt                     0      0.00%     61.84% # Class of executed instruction
system.cpu04.op_class::SimdFloatAdd                 0      0.00%     61.84% # Class of executed instruction
system.cpu04.op_class::SimdFloatAlu                 0      0.00%     61.84% # Class of executed instruction
system.cpu04.op_class::SimdFloatCmp                 0      0.00%     61.84% # Class of executed instruction
system.cpu04.op_class::SimdFloatCvt                 0      0.00%     61.84% # Class of executed instruction
system.cpu04.op_class::SimdFloatDiv                 0      0.00%     61.84% # Class of executed instruction
system.cpu04.op_class::SimdFloatMisc                0      0.00%     61.84% # Class of executed instruction
system.cpu04.op_class::SimdFloatMult                0      0.00%     61.84% # Class of executed instruction
system.cpu04.op_class::SimdFloatMultAcc             0      0.00%     61.84% # Class of executed instruction
system.cpu04.op_class::SimdFloatSqrt                0      0.00%     61.84% # Class of executed instruction
system.cpu04.op_class::SimdAes                      0      0.00%     61.84% # Class of executed instruction
system.cpu04.op_class::SimdAesMix                   0      0.00%     61.84% # Class of executed instruction
system.cpu04.op_class::SimdSha1Hash                 0      0.00%     61.84% # Class of executed instruction
system.cpu04.op_class::SimdSha1Hash2                0      0.00%     61.84% # Class of executed instruction
system.cpu04.op_class::SimdSha256Hash               0      0.00%     61.84% # Class of executed instruction
system.cpu04.op_class::SimdSha256Hash2              0      0.00%     61.84% # Class of executed instruction
system.cpu04.op_class::SimdShaSigma2                0      0.00%     61.84% # Class of executed instruction
system.cpu04.op_class::SimdShaSigma3                0      0.00%     61.84% # Class of executed instruction
system.cpu04.op_class::MemRead                    278     22.86%     84.70% # Class of executed instruction
system.cpu04.op_class::MemWrite                   174     14.31%     99.01% # Class of executed instruction
system.cpu04.op_class::FloatMemRead                 0      0.00%     99.01% # Class of executed instruction
system.cpu04.op_class::FloatMemWrite               12      0.99%    100.00% # Class of executed instruction
system.cpu04.op_class::IprAccess                    0      0.00%    100.00% # Class of executed instruction
system.cpu04.op_class::InstPrefetch                 0      0.00%    100.00% # Class of executed instruction
system.cpu04.op_class::total                     1216                       # Class of executed instruction
system.cpu04.pwrStateClkGateDist::samples            1                       # Distribution of time spent in the clock gated state
system.cpu04.pwrStateClkGateDist::mean      133739000                       # Distribution of time spent in the clock gated state
system.cpu04.pwrStateClkGateDist::1000-5e+10            1    100.00%    100.00% # Distribution of time spent in the clock gated state
system.cpu04.pwrStateClkGateDist::min_value    133739000                       # Distribution of time spent in the clock gated state
system.cpu04.pwrStateClkGateDist::max_value    133739000                       # Distribution of time spent in the clock gated state
system.cpu04.pwrStateClkGateDist::total             1                       # Distribution of time spent in the clock gated state
system.cpu04.pwrStateResidencyTicks::ON     651725000                       # Cumulative time (in ticks) in various power states
system.cpu04.pwrStateResidencyTicks::CLK_GATED    133739000                       # Cumulative time (in ticks) in various power states
system.cpu05.Branches                             253                       # Number of branches fetched
system.cpu05.committedInsts                      1304                       # Number of instructions committed
system.cpu05.committedOps                        1310                       # Number of ops (including micro ops) committed
system.cpu05.dtb.accesses                           0                       # DTB accesses
system.cpu05.dtb.hits                               0                       # DTB hits
system.cpu05.dtb.misses                             0                       # DTB misses
system.cpu05.dtb.pwrStateResidencyTicks::UNDEFINED    785464000                       # Cumulative time (in ticks) in various power states
system.cpu05.dtb.read_accesses                      0                       # DTB read accesses
system.cpu05.dtb.read_hits                          0                       # DTB read hits
system.cpu05.dtb.read_misses                        0                       # DTB read misses
system.cpu05.dtb.write_accesses                     0                       # DTB write accesses
system.cpu05.dtb.write_hits                         0                       # DTB write hits
system.cpu05.dtb.write_misses                       0                       # DTB write misses
system.cpu05.idle_fraction                   0.982618                       # Percentage of idle cycles
system.cpu05.itb.accesses                           0                       # DTB accesses
system.cpu05.itb.hits                               0                       # DTB hits
system.cpu05.itb.misses                             0                       # DTB misses
system.cpu05.itb.pwrStateResidencyTicks::UNDEFINED    785464000                       # Cumulative time (in ticks) in various power states
system.cpu05.itb.read_accesses                      0                       # DTB read accesses
system.cpu05.itb.read_hits                          0                       # DTB read hits
system.cpu05.itb.read_misses                        0                       # DTB read misses
system.cpu05.itb.write_accesses                     0                       # DTB write accesses
system.cpu05.itb.write_hits                         0                       # DTB write hits
system.cpu05.itb.write_misses                       0                       # DTB write misses
system.cpu05.not_idle_fraction               0.017382                       # Percentage of non-idle cycles
system.cpu05.numCycles                        1570762                       # number of cpu cycles simulated
system.cpu05.numPwrStateTransitions                 2                       # Number of power state transitions
system.cpu05.numWorkItemsCompleted                  0                       # number of work items this cpu completed
system.cpu05.numWorkItemsStarted                    0                       # number of work items this cpu started
system.cpu05.num_busy_cycles             27303.116539                       # Number of busy cycles
system.cpu05.num_conditional_control_insts          132                       # number of instructions that are conditional controls
system.cpu05.num_fp_alu_accesses                   12                       # Number of float alu accesses
system.cpu05.num_fp_insts                          12                       # number of float instructions
system.cpu05.num_fp_register_reads                 12                       # number of times the floating registers were read
system.cpu05.num_fp_register_writes                 0                       # number of times the floating registers were written
system.cpu05.num_func_calls                       121                       # number of times a function call or return occured
system.cpu05.num_idle_cycles             1543458.883461                       # Number of idle cycles
system.cpu05.num_int_alu_accesses                1282                       # Number of integer alu accesses
system.cpu05.num_int_insts                       1282                       # number of integer instructions
system.cpu05.num_int_register_reads              1495                       # number of times the integer registers were read
system.cpu05.num_int_register_writes              908                       # number of times the integer registers were written
system.cpu05.num_load_insts                       300                       # Number of load instructions
system.cpu05.num_mem_refs                         500                       # number of memory refs
system.cpu05.num_store_insts                      200                       # Number of store instructions
system.cpu05.num_vec_alu_accesses                   0                       # Number of vector alu accesses
system.cpu05.num_vec_insts                          0                       # number of vector instructions
system.cpu05.num_vec_register_reads                 0                       # number of times the vector registers were read
system.cpu05.num_vec_register_writes                0                       # number of times the vector registers were written
system.cpu05.op_class::No_OpClass                  10      0.76%      0.76% # Class of executed instruction
system.cpu05.op_class::IntAlu                     799     60.90%     61.66% # Class of executed instruction
system.cpu05.op_class::IntMult                      1      0.08%     61.74% # Class of executed instruction
system.cpu05.op_class::IntDiv                       2      0.15%     61.89% # Class of executed instruction
system.cpu05.op_class::FloatAdd                     0      0.00%     61.89% # Class of executed instruction
system.cpu05.op_class::FloatCmp                     0      0.00%     61.89% # Class of executed instruction
system.cpu05.op_class::FloatCvt                     0      0.00%     61.89% # Class of executed instruction
system.cpu05.op_class::FloatMult                    0      0.00%     61.89% # Class of executed instruction
system.cpu05.op_class::FloatMultAcc                 0      0.00%     61.89% # Class of executed instruction
system.cpu05.op_class::FloatDiv                     0      0.00%     61.89% # Class of executed instruction
system.cpu05.op_class::FloatMisc                    0      0.00%     61.89% # Class of executed instruction
system.cpu05.op_class::FloatSqrt                    0      0.00%     61.89% # Class of executed instruction
system.cpu05.op_class::SimdAdd                      0      0.00%     61.89% # Class of executed instruction
system.cpu05.op_class::SimdAddAcc                   0      0.00%     61.89% # Class of executed instruction
system.cpu05.op_class::SimdAlu                      0      0.00%     61.89% # Class of executed instruction
system.cpu05.op_class::SimdCmp                      0      0.00%     61.89% # Class of executed instruction
system.cpu05.op_class::SimdCvt                      0      0.00%     61.89% # Class of executed instruction
system.cpu05.op_class::SimdMisc                     0      0.00%     61.89% # Class of executed instruction
system.cpu05.op_class::SimdMult                     0      0.00%     61.89% # Class of executed instruction
system.cpu05.op_class::SimdMultAcc                  0      0.00%     61.89% # Class of executed instruction
system.cpu05.op_class::SimdShift                    0      0.00%     61.89% # Class of executed instruction
system.cpu05.op_class::SimdShiftAcc                 0      0.00%     61.89% # Class of executed instruction
system.cpu05.op_class::SimdSqrt                     0      0.00%     61.89% # Class of executed instruction
system.cpu05.op_class::SimdFloatAdd                 0      0.00%     61.89% # Class of executed instruction
system.cpu05.op_class::SimdFloatAlu                 0      0.00%     61.89% # Class of executed instruction
system.cpu05.op_class::SimdFloatCmp                 0      0.00%     61.89% # Class of executed instruction
system.cpu05.op_class::SimdFloatCvt                 0      0.00%     61.89% # Class of executed instruction
system.cpu05.op_class::SimdFloatDiv                 0      0.00%     61.89% # Class of executed instruction
system.cpu05.op_class::SimdFloatMisc                0      0.00%     61.89% # Class of executed instruction
system.cpu05.op_class::SimdFloatMult                0      0.00%     61.89% # Class of executed instruction
system.cpu05.op_class::SimdFloatMultAcc             0      0.00%     61.89% # Class of executed instruction
system.cpu05.op_class::SimdFloatSqrt                0      0.00%     61.89% # Class of executed instruction
system.cpu05.op_class::SimdAes                      0      0.00%     61.89% # Class of executed instruction
system.cpu05.op_class::SimdAesMix                   0      0.00%     61.89% # Class of executed instruction
system.cpu05.op_class::SimdSha1Hash                 0      0.00%     61.89% # Class of executed instruction
system.cpu05.op_class::SimdSha1Hash2                0      0.00%     61.89% # Class of executed instruction
system.cpu05.op_class::SimdSha256Hash               0      0.00%     61.89% # Class of executed instruction
system.cpu05.op_class::SimdSha256Hash2              0      0.00%     61.89% # Class of executed instruction
system.cpu05.op_class::SimdShaSigma2                0      0.00%     61.89% # Class of executed instruction
system.cpu05.op_class::SimdShaSigma3                0      0.00%     61.89% # Class of executed instruction
system.cpu05.op_class::MemRead                    304     23.17%     85.06% # Class of executed instruction
system.cpu05.op_class::MemWrite                   184     14.02%     99.09% # Class of executed instruction
system.cpu05.op_class::FloatMemRead                 0      0.00%     99.09% # Class of executed instruction
system.cpu05.op_class::FloatMemWrite               12      0.91%    100.00% # Class of executed instruction
system.cpu05.op_class::IprAccess                    0      0.00%    100.00% # Class of executed instruction
system.cpu05.op_class::InstPrefetch                 0      0.00%    100.00% # Class of executed instruction
system.cpu05.op_class::total                     1312                       # Class of executed instruction
system.cpu05.pwrStateClkGateDist::samples            1                       # Distribution of time spent in the clock gated state
system.cpu05.pwrStateClkGateDist::mean      122065500                       # Distribution of time spent in the clock gated state
system.cpu05.pwrStateClkGateDist::1000-5e+10            1    100.00%    100.00% # Distribution of time spent in the clock gated state
system.cpu05.pwrStateClkGateDist::min_value    122065500                       # Distribution of time spent in the clock gated state
system.cpu05.pwrStateClkGateDist::max_value    122065500                       # Distribution of time spent in the clock gated state
system.cpu05.pwrStateClkGateDist::total             1                       # Distribution of time spent in the clock gated state
system.cpu05.pwrStateResidencyTicks::ON     663398500                       # Cumulative time (in ticks) in various power states
system.cpu05.pwrStateResidencyTicks::CLK_GATED    122065500                       # Cumulative time (in ticks) in various power states
system.cpu06.Branches                             267                       # Number of branches fetched
system.cpu06.committedInsts                      1372                       # Number of instructions committed
system.cpu06.committedOps                        1378                       # Number of ops (including micro ops) committed
system.cpu06.dtb.accesses                           0                       # DTB accesses
system.cpu06.dtb.hits                               0                       # DTB hits
system.cpu06.dtb.misses                             0                       # DTB misses
system.cpu06.dtb.pwrStateResidencyTicks::UNDEFINED    785464000                       # Cumulative time (in ticks) in various power states
system.cpu06.dtb.read_accesses                      0                       # DTB read accesses
system.cpu06.dtb.read_hits                          0                       # DTB read hits
system.cpu06.dtb.read_misses                        0                       # DTB read misses
system.cpu06.dtb.write_accesses                     0                       # DTB write accesses
system.cpu06.dtb.write_hits                         0                       # DTB write hits
system.cpu06.dtb.write_misses                       0                       # DTB write misses
system.cpu06.idle_fraction                   0.982992                       # Percentage of idle cycles
system.cpu06.itb.accesses                           0                       # DTB accesses
system.cpu06.itb.hits                               0                       # DTB hits
system.cpu06.itb.misses                             0                       # DTB misses
system.cpu06.itb.pwrStateResidencyTicks::UNDEFINED    785464000                       # Cumulative time (in ticks) in various power states
system.cpu06.itb.read_accesses                      0                       # DTB read accesses
system.cpu06.itb.read_hits                          0                       # DTB read hits
system.cpu06.itb.read_misses                        0                       # DTB read misses
system.cpu06.itb.write_accesses                     0                       # DTB write accesses
system.cpu06.itb.write_hits                         0                       # DTB write hits
system.cpu06.itb.write_misses                       0                       # DTB write misses
system.cpu06.not_idle_fraction               0.017008                       # Percentage of non-idle cycles
system.cpu06.numCycles                        1570770                       # number of cpu cycles simulated
system.cpu06.numPwrStateTransitions                 2                       # Number of power state transitions
system.cpu06.numWorkItemsCompleted                  0                       # number of work items this cpu completed
system.cpu06.numWorkItemsStarted                    0                       # number of work items this cpu started
system.cpu06.num_busy_cycles             26715.314736                       # Number of busy cycles
system.cpu06.num_conditional_control_insts          137                       # number of instructions that are conditional controls
system.cpu06.num_fp_alu_accesses                   12                       # Number of float alu accesses
system.cpu06.num_fp_insts                          12                       # number of float instructions
system.cpu06.num_fp_register_reads                 12                       # number of times the floating registers were read
system.cpu06.num_fp_register_writes                 0                       # number of times the floating registers were written
system.cpu06.num_func_calls                       130                       # number of times a function call or return occured
system.cpu06.num_idle_cycles             1544054.685264                       # Number of idle cycles
system.cpu06.num_int_alu_accesses                1346                       # Number of integer alu accesses
system.cpu06.num_int_insts                       1346                       # number of integer instructions
system.cpu06.num_int_register_reads              1568                       # number of times the integer registers were read
system.cpu06.num_int_register_writes              956                       # number of times the integer registers were written
system.cpu06.num_load_insts                       315                       # Number of load instructions
system.cpu06.num_mem_refs                         522                       # number of memory refs
system.cpu06.num_store_insts                      207                       # Number of store instructions
system.cpu06.num_vec_alu_accesses                   0                       # Number of vector alu accesses
system.cpu06.num_vec_insts                          0                       # number of vector instructions
system.cpu06.num_vec_register_reads                 0                       # number of times the vector registers were read
system.cpu06.num_vec_register_writes                0                       # number of times the vector registers were written
system.cpu06.op_class::No_OpClass                  10      0.72%      0.72% # Class of executed instruction
system.cpu06.op_class::IntAlu                     845     61.23%     61.96% # Class of executed instruction
system.cpu06.op_class::IntMult                      1      0.07%     62.03% # Class of executed instruction
system.cpu06.op_class::IntDiv                       2      0.14%     62.17% # Class of executed instruction
system.cpu06.op_class::FloatAdd                     0      0.00%     62.17% # Class of executed instruction
system.cpu06.op_class::FloatCmp                     0      0.00%     62.17% # Class of executed instruction
system.cpu06.op_class::FloatCvt                     0      0.00%     62.17% # Class of executed instruction
system.cpu06.op_class::FloatMult                    0      0.00%     62.17% # Class of executed instruction
system.cpu06.op_class::FloatMultAcc                 0      0.00%     62.17% # Class of executed instruction
system.cpu06.op_class::FloatDiv                     0      0.00%     62.17% # Class of executed instruction
system.cpu06.op_class::FloatMisc                    0      0.00%     62.17% # Class of executed instruction
system.cpu06.op_class::FloatSqrt                    0      0.00%     62.17% # Class of executed instruction
system.cpu06.op_class::SimdAdd                      0      0.00%     62.17% # Class of executed instruction
system.cpu06.op_class::SimdAddAcc                   0      0.00%     62.17% # Class of executed instruction
system.cpu06.op_class::SimdAlu                      0      0.00%     62.17% # Class of executed instruction
system.cpu06.op_class::SimdCmp                      0      0.00%     62.17% # Class of executed instruction
system.cpu06.op_class::SimdCvt                      0      0.00%     62.17% # Class of executed instruction
system.cpu06.op_class::SimdMisc                     0      0.00%     62.17% # Class of executed instruction
system.cpu06.op_class::SimdMult                     0      0.00%     62.17% # Class of executed instruction
system.cpu06.op_class::SimdMultAcc                  0      0.00%     62.17% # Class of executed instruction
system.cpu06.op_class::SimdShift                    0      0.00%     62.17% # Class of executed instruction
system.cpu06.op_class::SimdShiftAcc                 0      0.00%     62.17% # Class of executed instruction
system.cpu06.op_class::SimdSqrt                     0      0.00%     62.17% # Class of executed instruction
system.cpu06.op_class::SimdFloatAdd                 0      0.00%     62.17% # Class of executed instruction
system.cpu06.op_class::SimdFloatAlu                 0      0.00%     62.17% # Class of executed instruction
system.cpu06.op_class::SimdFloatCmp                 0      0.00%     62.17% # Class of executed instruction
system.cpu06.op_class::SimdFloatCvt                 0      0.00%     62.17% # Class of executed instruction
system.cpu06.op_class::SimdFloatDiv                 0      0.00%     62.17% # Class of executed instruction
system.cpu06.op_class::SimdFloatMisc                0      0.00%     62.17% # Class of executed instruction
system.cpu06.op_class::SimdFloatMult                0      0.00%     62.17% # Class of executed instruction
system.cpu06.op_class::SimdFloatMultAcc             0      0.00%     62.17% # Class of executed instruction
system.cpu06.op_class::SimdFloatSqrt                0      0.00%     62.17% # Class of executed instruction
system.cpu06.op_class::SimdAes                      0      0.00%     62.17% # Class of executed instruction
system.cpu06.op_class::SimdAesMix                   0      0.00%     62.17% # Class of executed instruction
system.cpu06.op_class::SimdSha1Hash                 0      0.00%     62.17% # Class of executed instruction
system.cpu06.op_class::SimdSha1Hash2                0      0.00%     62.17% # Class of executed instruction
system.cpu06.op_class::SimdSha256Hash               0      0.00%     62.17% # Class of executed instruction
system.cpu06.op_class::SimdSha256Hash2              0      0.00%     62.17% # Class of executed instruction
system.cpu06.op_class::SimdShaSigma2                0      0.00%     62.17% # Class of executed instruction
system.cpu06.op_class::SimdShaSigma3                0      0.00%     62.17% # Class of executed instruction
system.cpu06.op_class::MemRead                    319     23.12%     85.29% # Class of executed instruction
system.cpu06.op_class::MemWrite                   191     13.84%     99.13% # Class of executed instruction
system.cpu06.op_class::FloatMemRead                 0      0.00%     99.13% # Class of executed instruction
system.cpu06.op_class::FloatMemWrite               12      0.87%    100.00% # Class of executed instruction
system.cpu06.op_class::IprAccess                    0      0.00%    100.00% # Class of executed instruction
system.cpu06.op_class::InstPrefetch                 0      0.00%    100.00% # Class of executed instruction
system.cpu06.op_class::total                     1380                       # Class of executed instruction
system.cpu06.pwrStateClkGateDist::samples            1                       # Distribution of time spent in the clock gated state
system.cpu06.pwrStateClkGateDist::mean      110740000                       # Distribution of time spent in the clock gated state
system.cpu06.pwrStateClkGateDist::1000-5e+10            1    100.00%    100.00% # Distribution of time spent in the clock gated state
system.cpu06.pwrStateClkGateDist::min_value    110740000                       # Distribution of time spent in the clock gated state
[...]
system.ruby.network.int_links39.credit_link.pwrStateResidencyTicks::UNDEFINED    785464000                       # Cumulative time (in ticks) in various power states
system.ruby.network.int_links39.network_link.pwrStateResidencyTicks::UNDEFINED    785464000                       # Cumulative time (in ticks) in various power states
system.ruby.network.int_links40.credit_link.pwrStateResidencyTicks::UNDEFINED    785464000                       # Cumulative time (in ticks) in various power states
system.ruby.network.int_links40.network_link.pwrStateResidencyTicks::UNDEFINED    785464000                       # Cumulative time (in ticks) in various power states
system.ruby.network.int_links41.credit_link.pwrStateResidencyTicks::UNDEFINED    785464000                       # Cumulative time (in ticks) in various power states
system.ruby.network.int_links41.network_link.pwrStateResidencyTicks::UNDEFINED    785464000                       # Cumulative time (in ticks) in various power states
system.ruby.network.int_links42.credit_link.pwrStateResidencyTicks::UNDEFINED    785464000                       # Cumulative time (in ticks) in various power states
system.ruby.network.int_links42.network_link.pwrStateResidencyTicks::UNDEFINED    785464000                       # Cumulative time (in ticks) in various power states
system.ruby.network.int_links43.credit_link.pwrStateResidencyTicks::UNDEFINED    785464000                       # Cumulative time (in ticks) in various power states
system.ruby.network.int_links43.network_link.pwrStateResidencyTicks::UNDEFINED    785464000                       # Cumulative time (in ticks) in various power states
system.ruby.network.int_links44.credit_link.pwrStateResidencyTicks::UNDEFINED    785464000                       # Cumulative time (in ticks) in various power states
system.ruby.network.int_links44.network_link.pwrStateResidencyTicks::UNDEFINED    785464000                       # Cumulative time (in ticks) in various power states
system.ruby.network.int_links45.credit_link.pwrStateResidencyTicks::UNDEFINED    785464000                       # Cumulative time (in ticks) in various power states
system.ruby.network.int_links45.network_link.pwrStateResidencyTicks::UNDEFINED    785464000                       # Cumulative time (in ticks) in various power states
system.ruby.network.int_links46.credit_link.pwrStateResidencyTicks::UNDEFINED    785464000                       # Cumulative time (in ticks) in various power states
system.ruby.network.int_links46.network_link.pwrStateResidencyTicks::UNDEFINED    785464000                       # Cumulative time (in ticks) in various power states
system.ruby.network.int_links47.credit_link.pwrStateResidencyTicks::UNDEFINED    785464000                       # Cumulative time (in ticks) in various power states
system.ruby.network.int_links47.network_link.pwrStateResidencyTicks::UNDEFINED    785464000                       # Cumulative time (in ticks) in various power states
system.ruby.network.netifs00.pwrStateResidencyTicks::UNDEFINED    785464000                       # Cumulative time (in ticks) in various power states
system.ruby.network.netifs01.pwrStateResidencyTicks::UNDEFINED    785464000                       # Cumulative time (in ticks) in various power states
system.ruby.network.netifs02.pwrStateResidencyTicks::UNDEFINED    785464000                       # Cumulative time (in ticks) in various power states
system.ruby.network.netifs03.pwrStateResidencyTicks::UNDEFINED    785464000                       # Cumulative time (in ticks) in various power states
system.ruby.network.netifs04.pwrStateResidencyTicks::UNDEFINED    785464000                       # Cumulative time (in ticks) in various power states
system.ruby.network.netifs05.pwrStateResidencyTicks::UNDEFINED    785464000                       # Cumulative time (in ticks) in various power states
system.ruby.network.netifs06.pwrStateResidencyTicks::UNDEFINED    785464000                       # Cumulative time (in ticks) in various power states
system.ruby.network.netifs07.pwrStateResidencyTicks::UNDEFINED    785464000                       # Cumulative time (in ticks) in various power states
system.ruby.network.netifs08.pwrStateResidencyTicks::UNDEFINED    785464000                       # Cumulative time (in ticks) in various power states
system.ruby.network.netifs09.pwrStateResidencyTicks::UNDEFINED    785464000                       # Cumulative time (in ticks) in various power states
system.ruby.network.netifs10.pwrStateResidencyTicks::UNDEFINED    785464000                       # Cumulative time (in ticks) in various power states
system.ruby.network.netifs11.pwrStateResidencyTicks::UNDEFINED    785464000                       # Cumulative time (in ticks) in various power states
system.ruby.network.netifs12.pwrStateResidencyTicks::UNDEFINED    785464000                       # Cumulative time (in ticks) in various power states
system.ruby.network.netifs13.pwrStateResidencyTicks::UNDEFINED    785464000                       # Cumulative time (in ticks) in various power states
system.ruby.network.netifs14.pwrStateResidencyTicks::UNDEFINED    785464000                       # Cumulative time (in ticks) in various power states
system.ruby.network.netifs15.pwrStateResidencyTicks::UNDEFINED    785464000                       # Cumulative time (in ticks) in various power states
system.ruby.network.netifs16.pwrStateResidencyTicks::UNDEFINED    785464000                       # Cumulative time (in ticks) in various power states
system.ruby.network.netifs17.pwrStateResidencyTicks::UNDEFINED    785464000                       # Cumulative time (in ticks) in various power states
system.ruby.network.netifs18.pwrStateResidencyTicks::UNDEFINED    785464000                       # Cumulative time (in ticks) in various power states
system.ruby.network.netifs19.pwrStateResidencyTicks::UNDEFINED    785464000                       # Cumulative time (in ticks) in various power states
system.ruby.network.netifs20.pwrStateResidencyTicks::UNDEFINED    785464000                       # Cumulative time (in ticks) in various power states
system.ruby.network.netifs21.pwrStateResidencyTicks::UNDEFINED    785464000                       # Cumulative time (in ticks) in various power states
system.ruby.network.netifs22.pwrStateResidencyTicks::UNDEFINED    785464000                       # Cumulative time (in ticks) in various power states
system.ruby.network.netifs23.pwrStateResidencyTicks::UNDEFINED    785464000                       # Cumulative time (in ticks) in various power states
system.ruby.network.netifs24.pwrStateResidencyTicks::UNDEFINED    785464000                       # Cumulative time (in ticks) in various power states
system.ruby.network.netifs25.pwrStateResidencyTicks::UNDEFINED    785464000                       # Cumulative time (in ticks) in various power states
system.ruby.network.netifs26.pwrStateResidencyTicks::UNDEFINED    785464000                       # Cumulative time (in ticks) in various power states
system.ruby.network.netifs27.pwrStateResidencyTicks::UNDEFINED    785464000                       # Cumulative time (in ticks) in various power states
system.ruby.network.netifs28.pwrStateResidencyTicks::UNDEFINED    785464000                       # Cumulative time (in ticks) in various power states
system.ruby.network.netifs29.pwrStateResidencyTicks::UNDEFINED    785464000                       # Cumulative time (in ticks) in various power states
system.ruby.network.netifs30.pwrStateResidencyTicks::UNDEFINED    785464000                       # Cumulative time (in ticks) in various power states
system.ruby.network.netifs31.pwrStateResidencyTicks::UNDEFINED    785464000                       # Cumulative time (in ticks) in various power states
system.ruby.network.netifs32.pwrStateResidencyTicks::UNDEFINED    785464000                       # Cumulative time (in ticks) in various power states
system.ruby.network.netifs33.pwrStateResidencyTicks::UNDEFINED    785464000                       # Cumulative time (in ticks) in various power states
system.ruby.network.netifs34.pwrStateResidencyTicks::UNDEFINED    785464000                       # Cumulative time (in ticks) in various power states
system.ruby.network.netifs35.pwrStateResidencyTicks::UNDEFINED    785464000                       # Cumulative time (in ticks) in various power states
system.ruby.network.packet_network_latency |      628953                       |      979080                       |      237070                      
system.ruby.network.packet_queueing_latency |       50285                       |       48044                       |       10589                      
system.ruby.network.packets_injected     |       22291     34.11%     34.11% |       33077     50.61%     84.72% |        9983     15.28%    100.00%
system.ruby.network.packets_injected::total        65351                      
system.ruby.network.packets_received     |       22288     34.12%     34.12% |       33062     50.61%     84.73% |        9979     15.27%    100.00%
system.ruby.network.packets_received::total        65329                      
system.ruby.network.pwrStateResidencyTicks::UNDEFINED    785464000                       # Cumulative time (in ticks) in various power states
system.ruby.network.routers00.buffer_reads       104778                      
system.ruby.network.routers00.buffer_writes       104778                      
system.ruby.network.routers00.crossbar_activity       104777                      
system.ruby.network.routers00.pwrStateResidencyTicks::UNDEFINED    785464000                       # Cumulative time (in ticks) in various power states
system.ruby.network.routers00.sw_input_arbiter_activity       104985                      
system.ruby.network.routers00.sw_output_arbiter_activity       104777                      
system.ruby.network.routers01.buffer_reads        49423                      
system.ruby.network.routers01.buffer_writes        49423                      
system.ruby.network.routers01.crossbar_activity        49423                      
system.ruby.network.routers01.pwrStateResidencyTicks::UNDEFINED    785464000                       # Cumulative time (in ticks) in various power states
system.ruby.network.routers01.sw_input_arbiter_activity        49497                      
system.ruby.network.routers01.sw_output_arbiter_activity        49423                      
system.ruby.network.routers02.buffer_reads        35259                      
system.ruby.network.routers02.buffer_writes        35259                      
system.ruby.network.routers02.crossbar_activity        35255                      
system.ruby.network.routers02.pwrStateResidencyTicks::UNDEFINED    785464000                       # Cumulative time (in ticks) in various power states
system.ruby.network.routers02.sw_input_arbiter_activity        35343                      
system.ruby.network.routers02.sw_output_arbiter_activity        35255                      
system.ruby.network.routers03.buffer_reads        25279                      
system.ruby.network.routers03.buffer_writes        25279                      
system.ruby.network.routers03.crossbar_activity        25277                      
system.ruby.network.routers03.pwrStateResidencyTicks::UNDEFINED    785464000                       # Cumulative time (in ticks) in various power states
system.ruby.network.routers03.sw_input_arbiter_activity        25388                      
system.ruby.network.routers03.sw_output_arbiter_activity        25277                      
system.ruby.network.routers04.buffer_reads        61217                      
system.ruby.network.routers04.buffer_writes        61217                      
system.ruby.network.routers04.crossbar_activity        61213                      
system.ruby.network.routers04.pwrStateResidencyTicks::UNDEFINED    785464000                       # Cumulative time (in ticks) in various power states
system.ruby.network.routers04.sw_input_arbiter_activity        61489                      
system.ruby.network.routers04.sw_output_arbiter_activity        61213                      
system.ruby.network.routers05.buffer_reads        25665                      
system.ruby.network.routers05.buffer_writes        25665                      
system.ruby.network.routers05.crossbar_activity        25665                      
system.ruby.network.routers05.pwrStateResidencyTicks::UNDEFINED    785464000                       # Cumulative time (in ticks) in various power states
system.ruby.network.routers05.sw_input_arbiter_activity        25693                      
system.ruby.network.routers05.sw_output_arbiter_activity        25665                      
system.ruby.network.routers06.buffer_reads        20324                      
system.ruby.network.routers06.buffer_writes        20324                      
system.ruby.network.routers06.crossbar_activity        20322                      
system.ruby.network.routers06.pwrStateResidencyTicks::UNDEFINED    785464000                       # Cumulative time (in ticks) in various power states
system.ruby.network.routers06.sw_input_arbiter_activity        20351                      
system.ruby.network.routers06.sw_output_arbiter_activity        20322                      
system.ruby.network.routers07.buffer_reads        20449                      
system.ruby.network.routers07.buffer_writes        20449                      
system.ruby.network.routers07.crossbar_activity        20449                      
system.ruby.network.routers07.pwrStateResidencyTicks::UNDEFINED    785464000                       # Cumulative time (in ticks) in various power states
system.ruby.network.routers07.sw_input_arbiter_activity        20612                      
system.ruby.network.routers07.sw_output_arbiter_activity        20449                      
system.ruby.network.routers08.buffer_reads        46298                      
system.ruby.network.routers08.buffer_writes        46298                      
system.ruby.network.routers08.crossbar_activity        46296                      
system.ruby.network.routers08.pwrStateResidencyTicks::UNDEFINED    785464000                       # Cumulative time (in ticks) in various power states
system.ruby.network.routers08.sw_input_arbiter_activity        47232                      
system.ruby.network.routers08.sw_output_arbiter_activity        46296                      
system.ruby.network.routers09.buffer_reads        22914                      
system.ruby.network.routers09.buffer_writes        22914                      
system.ruby.network.routers09.crossbar_activity        22914                      
system.ruby.network.routers09.pwrStateResidencyTicks::UNDEFINED    785464000                       # Cumulative time (in ticks) in various power states
system.ruby.network.routers09.sw_input_arbiter_activity        23005                      
system.ruby.network.routers09.sw_output_arbiter_activity        22914                      
system.ruby.network.routers10.buffer_reads        23836                      
system.ruby.network.routers10.buffer_writes        23836                      
system.ruby.network.routers10.crossbar_activity        23836                      
system.ruby.network.routers10.pwrStateResidencyTicks::UNDEFINED    785464000                       # Cumulative time (in ticks) in various power states
system.ruby.network.routers10.sw_input_arbiter_activity        23965                      
system.ruby.network.routers10.sw_output_arbiter_activity        23836                      
system.ruby.network.routers11.buffer_reads        27399                      
system.ruby.network.routers11.buffer_writes        27399                      
system.ruby.network.routers11.crossbar_activity        27392                      
system.ruby.network.routers11.pwrStateResidencyTicks::UNDEFINED    785464000                       # Cumulative time (in ticks) in various power states
system.ruby.network.routers11.sw_input_arbiter_activity        28835                      
system.ruby.network.routers11.sw_output_arbiter_activity        27392                      
system.ruby.network.routers12.buffer_reads        44229                      
system.ruby.network.routers12.buffer_writes        44229                      
system.ruby.network.routers12.crossbar_activity        44229                      
system.ruby.network.routers12.pwrStateResidencyTicks::UNDEFINED    785464000                       # Cumulative time (in ticks) in various power states
system.ruby.network.routers12.sw_input_arbiter_activity        45806                      
system.ruby.network.routers12.sw_output_arbiter_activity        44229                      
system.ruby.network.routers13.buffer_reads        32220                      
system.ruby.network.routers13.buffer_writes        32220                      
system.ruby.network.routers13.crossbar_activity        32218                      
system.ruby.network.routers13.pwrStateResidencyTicks::UNDEFINED    785464000                       # Cumulative time (in ticks) in various power states
system.ruby.network.routers13.sw_input_arbiter_activity        32356                      
system.ruby.network.routers13.sw_output_arbiter_activity        32218                      
system.ruby.network.routers14.buffer_reads        27469                      
system.ruby.network.routers14.buffer_writes        27469                      
system.ruby.network.routers14.crossbar_activity        27469                      
system.ruby.network.routers14.pwrStateResidencyTicks::UNDEFINED    785464000                       # Cumulative time (in ticks) in various power states
system.ruby.network.routers14.sw_input_arbiter_activity        27601                      
system.ruby.network.routers14.sw_output_arbiter_activity        27469                      
system.ruby.network.routers15.buffer_reads        22852                      
system.ruby.network.routers15.buffer_writes        22852                      
system.ruby.network.routers15.crossbar_activity        22851                      
system.ruby.network.routers15.pwrStateResidencyTicks::UNDEFINED    785464000                       # Cumulative time (in ticks) in various power states
system.ruby.network.routers15.sw_input_arbiter_activity        23315                      
system.ruby.network.routers15.sw_output_arbiter_activity        22851                      
system.ruby.outstanding_req_hist_seqr::bucket_size            1                      
system.ruby.outstanding_req_hist_seqr::max_bucket            9                      
system.ruby.outstanding_req_hist_seqr::samples       190906                      
system.ruby.outstanding_req_hist_seqr::mean            1                      
system.ruby.outstanding_req_hist_seqr::gmean            1                      
system.ruby.outstanding_req_hist_seqr    |           0      0.00%      0.00% |      190906    100.00%    100.00% |           0      0.00%    100.00% |           0      0.00%    100.00% |           0      0.00%    100.00% |           0      0.00%    100.00% |           0      0.00%    100.00% |           0      0.00%    100.00% |           0      0.00%    100.00% |           0      0.00%    100.00%
system.ruby.outstanding_req_hist_seqr::total       190906                      
system.ruby.pwrStateResidencyTicks::UNDEFINED    785464000                       # Cumulative time (in ticks) in various power states
system.sys_port_proxy.pwrStateResidencyTicks::UNDEFINED    785464000                       # Cumulative time (in ticks) in various power states
system.voltage_domain.voltage                       1                       # Voltage in Volts

---------- End Simulation Statistics   ----------
