
---------- Begin Simulation Statistics ----------
final_tick                                  718913000                       # Number of ticks from beginning of simulation (restored from checkpoints and never reset)
host_inst_rate                                  23049                       # Simulator instruction rate (inst/s)
host_mem_usage                                5160364                       # Number of bytes of host memory used
host_op_rate                                    23101                       # Simulator op (including micro ops) rate (op/s)
host_seconds                                     7.28                       # Real time elapsed on the host
host_tick_rate                               98789079                       # Simulator tick rate (ticks/s)
sim_freq                                 1000000000000                       # Frequency of simulated ticks
sim_insts                                      167728                       # Number of instructions simulated
sim_ops                                        168110                       # Number of ops (including micro ops) simulated
sim_seconds                                  0.000719                       # Number of seconds simulated
sim_ticks                                   718913000                       # Number of ticks simulated
system.clk_domain.clock                          1000                       # Clock period in ticks
system.cpu00.Branches                           22341                       # Number of branches fetched
system.cpu00.committedInsts                    100001                       # Number of instructions committed
system.cpu00.committedOps                      100294                       # Number of ops (including micro ops) committed
system.cpu00.dtb.accesses                           0                       # DTB accesses
system.cpu00.dtb.hits                               0                       # DTB hits
system.cpu00.dtb.misses                             0                       # DTB misses
system.cpu00.dtb.pwrStateResidencyTicks::UNDEFINED    718913000                       # Cumulative time (in ticks) in various power states
system.cpu00.dtb.read_accesses                      0                       # DTB read accesses
system.cpu00.dtb.read_hits                          0                       # DTB read hits
system.cpu00.dtb.read_misses                        0                       # DTB read misses
system.cpu00.dtb.write_accesses                     0                       # DTB write accesses
system.cpu00.dtb.write_hits                         0                       # DTB write hits
system.cpu00.dtb.write_misses                       0                       # DTB write misses
system.cpu00.idle_fraction                   0.003921                       # Percentage of idle cycles
system.cpu00.itb.accesses                           0                       # DTB accesses
system.cpu00.itb.hits                               0                       # DTB hits
system.cpu00.itb.misses                             0                       # DTB misses
system.cpu00.itb.pwrStateResidencyTicks::UNDEFINED    718913000                       # Cumulative time (in ticks) in various power states
system.cpu00.itb.read_accesses                      0                       # DTB read accesses
system.cpu00.itb.read_hits                          0                       # DTB read hits
system.cpu00.itb.read_misses                        0                       # DTB read misses
system.cpu00.itb.write_accesses                     0                       # DTB write accesses
system.cpu00.itb.write_hits                         0                       # DTB write hits
system.cpu00.itb.write_misses                       0                       # DTB write misses
system.cpu00.not_idle_fraction               0.996079                       # Percentage of non-idle cycles
system.cpu00.numCycles                        1437826                       # number of cpu cycles simulated
system.cpu00.numPwrStateTransitions                 2                       # Number of power state transitions
system.cpu00.numWorkItemsCompleted                  0                       # number of work items this cpu completed
system.cpu00.numWorkItemsStarted                    0                       # number of work items this cpu started
system.cpu00.num_busy_cycles             1432188.000008                       # Number of busy cycles
system.cpu00.num_conditional_control_insts        15920                       # number of instructions that are conditional controls
system.cpu00.num_fp_alu_accesses                   12                       # Number of float alu accesses
system.cpu00.num_fp_insts                          12                       # number of float instructions
system.cpu00.num_fp_register_reads                 12                       # number of times the floating registers were read
system.cpu00.num_fp_register_writes                 0                       # number of times the floating registers were written
system.cpu00.num_func_calls                      6421                       # number of times a function call or return occured
system.cpu00.num_idle_cycles              5637.999992                       # Number of idle cycles
system.cpu00.num_int_alu_accesses               98834                       # Number of integer alu accesses
system.cpu00.num_int_insts                      98834                       # number of integer instructions
system.cpu00.num_int_register_reads            120829                       # number of times the integer registers were read
system.cpu00.num_int_register_writes            64480                       # number of times the integer registers were written
system.cpu00.num_load_insts                     20289                       # Number of load instructions
system.cpu00.num_mem_refs                       36556                       # number of memory refs
system.cpu00.num_store_insts                    16267                       # Number of store instructions
system.cpu00.num_vec_alu_accesses                   0                       # Number of vector alu accesses
system.cpu00.num_vec_insts                          0                       # number of vector instructions
system.cpu00.num_vec_register_reads                 0                       # number of times the vector registers were read
system.cpu00.num_vec_register_writes                0                       # number of times the vector registers were written
system.cpu00.op_class::No_OpClass                 860      0.86%      0.86% # Class of executed instruction
system.cpu00.op_class::IntAlu                   62915     62.68%     63.54% # Class of executed instruction
system.cpu00.op_class::IntMult                     30      0.03%     63.57% # Class of executed instruction
system.cpu00.op_class::IntDiv                       6      0.01%     63.58% # Class of executed instruction
system.cpu00.op_class::FloatAdd                     0      0.00%     63.58% # Class of executed instruction
system.cpu00.op_class::FloatCmp                     0      0.00%     63.58% # Class of executed instruction
system.cpu00.op_class::FloatCvt                     0      0.00%     63.58% # Class of executed instruction
system.cpu00.op_class::FloatMult                    0      0.00%     63.58% # Class of executed instruction
system.cpu00.op_class::FloatMultAcc                 0      0.00%     63.58% # Class of executed instruction
system.cpu00.op_class::FloatDiv                     0      0.00%     63.58% # Class of executed instruction
system.cpu00.op_class::FloatMisc                    0      0.00%     63.58% # Class of executed instruction
system.cpu00.op_class::FloatSqrt                    0      0.00%     63.58% # Class of executed instruction
system.cpu00.op_class::SimdAdd                      0      0.00%     63.58% # Class of executed instruction
system.cpu00.op_class::SimdAddAcc                   0      0.00%     63.58% # Class of executed instruction
system.cpu00.op_class::SimdAlu                      0      0.00%     63.58% # Class of executed instruction
system.cpu00.op_class::SimdCmp                      0      0.00%     63.58% # Class of executed instruction
system.cpu00.op_class::SimdCvt                      0      0.00%     63.58% # Class of executed instruction
system.cpu00.op_class::SimdMisc                     0      0.00%     63.58% # Class of executed instruction
system.cpu00.op_class::SimdMult                     0      0.00%     63.58% # Class of executed instruction
system.cpu00.op_class::SimdMultAcc                  0      0.00%     63.58% # Class of executed instruction
system.cpu00.op_class::SimdShift                    0      0.00%     63.58% # Class of executed instruction
system.cpu00.op_class::SimdShiftAcc                 0      0.00%     63.58% # Class of executed instruction
system.cpu00.op_class::SimdSqrt                     0      0.00%     63.58% # Class of executed instruction
system.cpu00.op_class::SimdFloatAdd                 0      0.00%     63.58% # Class of executed instruction
system.cpu00.op_class::SimdFloatAlu                 0      0.00%     63.58% # Class of executed instruction
system.cpu00.op_class::SimdFloatCmp                 0      0.00%     63.58% # Class of executed instruction
system.cpu00.op_class::SimdFloatCvt                 0      0.00%     63.58% # Class of executed instruction
system.cpu00.op_class::SimdFloatDiv                 0      0.00%     63.58% # Class of executed instruction
system.cpu00.op_class::SimdFloatMisc                0      0.00%     63.58% # Class of executed instruction
system.cpu00.op_class::SimdFloatMult                0      0.00%     63.58% # Class of executed instruction
system.cpu00.op_class::SimdFloatMultAcc             0      0.00%     63.58% # Class of executed instruction
system.cpu00.op_class::SimdFloatSqrt                0      0.00%     63.58% # Class of executed instruction
system.cpu00.op_class::SimdAes                      0      0.00%     63.58% # Class of executed instruction
system.cpu00.op_class::SimdAesMix                   0      0.00%     63.58% # Class of executed instruction
system.cpu00.op_class::SimdSha1Hash                 0      0.00%     63.58% # Class of executed instruction
system.cpu00.op_class::SimdSha1Hash2                0      0.00%     63.58% # Class of executed instruction
system.cpu00.op_class::SimdSha256Hash               0      0.00%     63.58% # Class of executed instruction
system.cpu00.op_class::SimdSha256Hash2              0      0.00%     63.58% # Class of executed instruction
system.cpu00.op_class::SimdShaSigma2                0      0.00%     63.58% # Class of executed instruction
system.cpu00.op_class::SimdShaSigma3                0      0.00%     63.58% # Class of executed instruction
system.cpu00.op_class::MemRead                  20574     20.50%     84.08% # Class of executed instruction
system.cpu00.op_class::MemWrite                 15970     15.91%     99.99% # Class of executed instruction
system.cpu00.op_class::FloatMemRead                 0      0.00%     99.99% # Class of executed instruction
system.cpu00.op_class::FloatMemWrite               12      0.01%    100.00% # Class of executed instruction
system.cpu00.op_class::IprAccess                    0      0.00%    100.00% # Class of executed instruction
system.cpu00.op_class::InstPrefetch                 0      0.00%    100.00% # Class of executed instruction
system.cpu00.op_class::total                   100367                       # Class of executed instruction
system.cpu00.pwrStateClkGateDist::samples            1                       # Distribution of time spent in the clock gated state
system.cpu00.pwrStateClkGateDist::mean        2819000                       # Distribution of time spent in the clock gated state
system.cpu00.pwrStateClkGateDist::1000-5e+10            1    100.00%    100.00% # Distribution of time spent in the clock gated state
system.cpu00.pwrStateClkGateDist::min_value      2819000                       # Distribution of time spent in the clock gated state
system.cpu00.pwrStateClkGateDist::max_value      2819000                       # Distribution of time spent in the clock gated state
system.cpu00.pwrStateClkGateDist::total             1                       # Distribution of time spent in the clock gated state
system.cpu00.pwrStateResidencyTicks::ON     716094000                       # Cumulative time (in ticks) in various power states
system.cpu00.pwrStateResidencyTicks::CLK_GATED      2819000                       # Cumulative time (in ticks) in various power states
system.cpu00.workload.numSyscalls                  72                       # Number of system calls
system.cpu01.Branches                             901                       # Number of branches fetched
system.cpu01.committedInsts                      4799                       # Number of instructions committed
system.cpu01.committedOps                        4805                       # Number of ops (including micro ops) committed
system.cpu01.dtb.accesses                           0                       # DTB accesses
system.cpu01.dtb.hits                               0                       # DTB hits
system.cpu01.dtb.misses                             0                       # DTB misses
system.cpu01.dtb.pwrStateResidencyTicks::UNDEFINED    718913000                       # Cumulative time (in ticks) in various power states
system.cpu01.dtb.read_accesses                      0                       # DTB read accesses
system.cpu01.dtb.read_hits                          0                       # DTB read hits
system.cpu01.dtb.read_misses                        0                       # DTB read misses
system.cpu01.dtb.write_accesses                     0                       # DTB write accesses
system.cpu01.dtb.write_hits                         0                       # DTB write hits
system.cpu01.dtb.write_misses                       0                       # DTB write misses
system.cpu01.idle_fraction                   0.980951                       # Percentage of idle cycles
system.cpu01.itb.accesses                           0                       # DTB accesses
system.cpu01.itb.hits                               0                       # DTB hits
system.cpu01.itb.misses                             0                       # DTB misses
system.cpu01.itb.pwrStateResidencyTicks::UNDEFINED    718913000                       # Cumulative time (in ticks) in various power states
system.cpu01.itb.read_accesses                      0                       # DTB read accesses
system.cpu01.itb.read_hits                          0                       # DTB read hits
system.cpu01.itb.read_misses                        0                       # DTB read misses
system.cpu01.itb.write_accesses                     0                       # DTB write accesses
system.cpu01.itb.write_hits                         0                       # DTB write hits
system.cpu01.itb.write_misses                       0                       # DTB write misses
system.cpu01.not_idle_fraction               0.019049                       # Percentage of non-idle cycles
system.cpu01.numCycles                        1437825                       # number of cpu cycles simulated
system.cpu01.numPwrStateTransitions                 2                       # Number of power state transitions
system.cpu01.numWorkItemsCompleted                  0                       # number of work items this cpu completed
system.cpu01.numWorkItemsStarted                    0                       # number of work items this cpu started
system.cpu01.num_busy_cycles             27388.982913                       # Number of busy cycles
system.cpu01.num_conditional_control_insts          471                       # number of instructions that are conditional controls
system.cpu01.num_fp_alu_accesses                   12                       # Number of float alu accesses
system.cpu01.num_fp_insts                          12                       # number of float instructions
system.cpu01.num_fp_register_reads                 12                       # number of times the floating registers were read
system.cpu01.num_fp_register_writes                 0                       # number of times the floating registers were written
system.cpu01.num_func_calls                       430                       # number of times a function call or return occured
system.cpu01.num_idle_cycles             1410436.017087                       # Number of idle cycles
system.cpu01.num_int_alu_accesses                4721                       # Number of integer alu accesses
system.cpu01.num_int_insts                       4721                       # number of integer instructions
system.cpu01.num_int_register_reads              5440                       # number of times the integer registers were read
system.cpu01.num_int_register_writes             3500                       # number of times the integer registers were written
system.cpu01.num_load_insts                      1174                       # Number of load instructions
system.cpu01.num_mem_refs                        1741                       # number of memory refs
system.cpu01.num_store_insts                      567                       # Number of store instructions
system.cpu01.num_vec_alu_accesses                   0                       # Number of vector alu accesses
system.cpu01.num_vec_insts                          0                       # number of vector instructions
system.cpu01.num_vec_register_reads                 0                       # number of times the vector registers were read
system.cpu01.num_vec_register_writes                0                       # number of times the vector registers were written
system.cpu01.op_class::No_OpClass                  10      0.21%      0.21% # Class of executed instruction
system.cpu01.op_class::IntAlu                    3053     63.51%     63.72% # Class of executed instruction
system.cpu01.op_class::IntMult                      1      0.02%     63.74% # Class of executed instruction
system.cpu01.op_class::IntDiv                       2      0.04%     63.78% # Class of executed instruction
system.cpu01.op_class::FloatAdd                     0      0.00%     63.78% # Class of executed instruction
system.cpu01.op_class::FloatCmp                     0      0.00%     63.78% # Class of executed instruction
system.cpu01.op_class::FloatCvt                     0      0.00%     63.78% # Class of executed instruction
system.cpu01.op_class::FloatMult                    0      0.00%     63.78% # Class of executed instruction
system.cpu01.op_class::FloatMultAcc                 0      0.00%     63.78% # Class of executed instruction
system.cpu01.op_class::FloatDiv                     0      0.00%     63.78% # Class of executed instruction
system.cpu01.op_class::FloatMisc                    0      0.00%     63.78% # Class of executed instruction
system.cpu01.op_class::FloatSqrt                    0      0.00%     63.78% # Class of executed instruction
system.cpu01.op_class::SimdAdd                      0      0.00%     63.78% # Class of executed instruction
system.cpu01.op_class::SimdAddAcc                   0      0.00%     63.78% # Class of executed instruction
system.cpu01.op_class::SimdAlu                      0      0.00%     63.78% # Class of executed instruction
system.cpu01.op_class::SimdCmp                      0      0.00%     63.78% # Class of executed instruction
system.cpu01.op_class::SimdCvt                      0      0.00%     63.78% # Class of executed instruction
system.cpu01.op_class::SimdMisc                     0      0.00%     63.78% # Class of executed instruction
system.cpu01.op_class::SimdMult                     0      0.00%     63.78% # Class of executed instruction
system.cpu01.op_class::SimdMultAcc                  0      0.00%     63.78% # Class of executed instruction
system.cpu01.op_class::SimdShift                    0      0.00%     63.78% # Class of executed instruction
system.cpu01.op_class::SimdShiftAcc                 0      0.00%     63.78% # Class of executed instruction
system.cpu01.op_class::SimdSqrt                     0      0.00%     63.78% # Class of executed instruction
system.cpu01.op_class::SimdFloatAdd                 0      0.00%     63.78% # Class of executed instruction
system.cpu01.op_class::SimdFloatAlu                 0      0.00%     63.78% # Class of executed instruction
system.cpu01.op_class::SimdFloatCmp                 0      0.00%     63.78% # Class of executed instruction
system.cpu01.op_class::SimdFloatCvt                 0      0.00%     63.78% # Class of executed instruction
system.cpu01.op_class::SimdFloatDiv                 0      0.00%     63.78% # Class of executed instruction
system.cpu01.op_class::SimdFloatMisc                0      0.00%     63.78% # Class of executed instruction
system.cpu01.op_class::SimdFloatMult                0      0.00%     63.78% # Class of executed instruction
system.cpu01.op_class::SimdFloatMultAcc             0      0.00%     63.78% # Class of executed instruction
system.cpu01.op_class::SimdFloatSqrt                0      0.00%     63.78% # Class of executed instruction
system.cpu01.op_class::SimdAes                      0      0.00%     63.78% # Class of executed instruction
system.cpu01.op_class::SimdAesMix                   0      0.00%     63.78% # Class of executed instruction
system.cpu01.op_class::SimdSha1Hash                 0      0.00%     63.78% # Class of executed instruction
system.cpu01.op_class::SimdSha1Hash2                0      0.00%     63.78% # Class of executed instruction
system.cpu01.op_class::SimdSha256Hash               0      0.00%     63.78% # Class of executed instruction
system.cpu01.op_class::SimdSha256Hash2              0      0.00%     63.78% # Class of executed instruction
system.cpu01.op_class::SimdShaSigma2                0      0.00%     63.78% # Class of executed instruction
system.cpu01.op_class::SimdShaSigma3                0      0.00%     63.78% # Class of executed instruction
system.cpu01.op_class::MemRead                   1178     24.51%     88.29% # Class of executed instruction
system.cpu01.op_class::MemWrite                   551     11.46%     99.75% # Class of executed instruction
system.cpu01.op_class::FloatMemRead                 0      0.00%     99.75% # Class of executed instruction
system.cpu01.op_class::FloatMemWrite               12      0.25%    100.00% # Class of executed instruction
system.cpu01.op_class::IprAccess                    0      0.00%    100.00% # Class of executed instruction
system.cpu01.op_class::InstPrefetch                 0      0.00%    100.00% # Class of executed instruction
system.cpu01.op_class::total                     4807                       # Class of executed instruction
system.cpu01.pwrStateClkGateDist::samples            1                       # Distribution of time spent in the clock gated state
system.cpu01.pwrStateClkGateDist::mean      142676000                       # Distribution of time spent in the clock gated state
system.cpu01.pwrStateClkGateDist::1000-5e+10            1    100.00%    100.00% # Distribution of time spent in the clock gated state
system.cpu01.pwrStateClkGateDist::min_value    142676000                       # Distribution of time spent in the clock gated state
system.cpu01.pwrStateClkGateDist::max_value    142676000                       # Distribution of time spent in the clock gated state
system.cpu01.pwrStateClkGateDist::total             1                       # Distribution of time spent in the clock gated state
system.cpu01.pwrStateResidencyTicks::ON     576237000                       # Cumulative time (in ticks) in various power states
system.cpu01.pwrStateResidencyTicks::CLK_GATED    142676000                       # Cumulative time (in ticks) in various power states
system.cpu02.Branches                             897                       # Number of branches fetched
system.cpu02.committedInsts                      4781                       # Number of instructions committed
system.cpu02.committedOps                        4787                       # Number of ops (including micro ops) committed
system.cpu02.dtb.accesses                           0                       # DTB accesses
system.cpu02.dtb.hits                               0                       # DTB hits
system.cpu02.dtb.misses                             0                       # DTB misses
system.cpu02.dtb.pwrStateResidencyTicks::UNDEFINED    718913000                       # Cumulative time (in ticks) in various power states
system.cpu02.dtb.read_accesses                      0                       # DTB read accesses
system.cpu02.dtb.read_hits                          0                       # DTB read hits
system.cpu02.dtb.read_misses                        0                       # DTB read misses
system.cpu02.dtb.write_accesses                     0                       # DTB write accesses
system.cpu02.dtb.write_hits                         0                       # DTB write hits
system.cpu02.dtb.write_misses                       0                       # DTB write misses
system.cpu02.idle_fraction                   0.983236                       # Percentage of idle cycles
system.cpu02.itb.accesses                           0                       # DTB accesses
system.cpu02.itb.hits                               0                       # DTB hits
system.cpu02.itb.misses                             0                       # DTB misses
system.cpu02.itb.pwrStateResidencyTicks::UNDEFINED    718913000                       # Cumulative time (in ticks) in various power states
system.cpu02.itb.read_accesses                      0                       # DTB read accesses
system.cpu02.itb.read_hits                          0                       # DTB read hits
system.cpu02.itb.read_misses                        0                       # DTB read misses
system.cpu02.itb.write_accesses                     0                       # DTB write accesses
system.cpu02.itb.write_hits                         0                       # DTB write hits
system.cpu02.itb.write_misses                       0                       # DTB write misses
system.cpu02.not_idle_fraction               0.016764                       # Percentage of non-idle cycles
system.cpu02.numCycles                        1437826                       # number of cpu cycles simulated
system.cpu02.numPwrStateTransitions                 2                       # Number of power state transitions
system.cpu02.numWorkItemsCompleted                  0                       # number of work items this cpu completed
system.cpu02.numWorkItemsStarted                    0                       # number of work items this cpu started
system.cpu02.num_busy_cycles             24103.001966                       # Number of busy cycles
system.cpu02.num_conditional_control_insts          469                       # number of instructions that are conditional controls
system.cpu02.num_fp_alu_accesses                   12                       # Number of float alu accesses
system.cpu02.num_fp_insts                          12                       # number of float instructions
system.cpu02.num_fp_register_reads                 12                       # number of times the floating registers were read
system.cpu02.num_fp_register_writes                 0                       # number of times the floating registers were written
system.cpu02.num_func_calls                       428                       # number of times a function call or return occured
system.cpu02.num_idle_cycles             1413722.998034                       # Number of idle cycles
system.cpu02.num_int_alu_accesses                4704                       # Number of integer alu accesses
system.cpu02.num_int_insts                       4704                       # number of integer instructions
system.cpu02.num_int_register_reads              5419                       # number of times the integer registers were read
system.cpu02.num_int_register_writes             3488                       # number of times the integer registers were written
system.cpu02.num_load_insts                      1167                       # Number of load instructions
system.cpu02.num_mem_refs                        1732                       # number of memory refs
system.cpu02.num_store_insts                      565                       # Number of store instructions
system.cpu02.num_vec_alu_accesses                   0                       # Number of vector alu accesses
system.cpu02.num_vec_insts                          0                       # number of vector instructions
system.cpu02.num_vec_register_reads                 0                       # number of times the vector registers were read
system.cpu02.num_vec_register_writes                0                       # number of times the vector registers were written
system.cpu02.op_class::No_OpClass                  10      0.21%      0.21% # Class of executed instruction
system.cpu02.op_class::IntAlu                    3044     63.56%     63.77% # Class of executed instruction
system.cpu02.op_class::IntMult                      1      0.02%     63.79% # Class of executed instruction
system.cpu02.op_class::IntDiv                       2      0.04%     63.83% # Class of executed instruction
system.cpu02.op_class::FloatAdd                     0      0.00%     63.83% # Class of executed instruction
system.cpu02.op_class::FloatCmp                     0      0.00%     63.83% # Class of executed instruction
system.cpu02.op_class::FloatCvt                     0      0.00%     63.83% # Class of executed instruction
system.cpu02.op_class::FloatMult                    0      0.00%     63.83% # Class of executed instruction
system.cpu02.op_class::FloatMultAcc                 0      0.00%     63.83% # Class of executed instruction
system.cpu02.op_class::FloatDiv                     0      0.00%     63.83% # Class of executed instruction
system.cpu02.op_class::FloatMisc                    0      0.00%     63.83% # Class of executed instruction
system.cpu02.op_class::FloatSqrt                    0      0.00%     63.83% # Class of executed instruction
system.cpu02.op_class::SimdAdd                      0      0.00%     63.83% # Class of executed instruction
system.cpu02.op_class::SimdAddAcc                   0      0.00%     63.83% # Class of executed instruction
system.cpu02.op_class::SimdAlu                      0      0.00%     63.83% # Class of executed instruction
system.cpu02.op_class::SimdCmp                      0      0.00%     63.83% # Class of executed instruction
system.cpu02.op_class::SimdCvt                      0      0.00%     63.83% # Class of executed instruction
system.cpu02.op_class::SimdMisc                     0      0.00%     63.83% # Class of executed instruction
system.cpu02.op_class::SimdMult                     0      0.00%     63.83% # Class of executed instruction
system.cpu02.op_class::SimdMultAcc                  0      0.00%     63.83% # Class of executed instruction
system.cpu02.op_class::SimdShift                    0      0.00%     63.83% # Class of executed instruction
system.cpu02.op_class::SimdShiftAcc                 0      0.00%     63.83% # Class of executed instruction
system.cpu02.op_class::SimdSqrt                     0      0.00%     63.83% # Class of executed instruction
system.cpu02.op_class::SimdFloatAdd                 0      0.00%     63.83% # Class of executed instruction
system.cpu02.op_class::SimdFloatAlu                 0      0.00%     63.83% # Class of executed instruction
system.cpu02.op_class::SimdFloatCmp                 0      0.00%     63.83% # Class of executed instruction
system.cpu02.op_class::SimdFloatCvt                 0      0.00%     63.83% # Class of executed instruction
system.cpu02.op_class::SimdFloatDiv                 0      0.00%     63.83% # Class of executed instruction
system.cpu02.op_class::SimdFloatMisc                0      0.00%     63.83% # Class of executed instruction
system.cpu02.op_class::SimdFloatMult                0      0.00%     63.83% # Class of executed instruction
system.cpu02.op_class::SimdFloatMultAcc             0      0.00%     63.83% # Class of executed instruction
system.cpu02.op_class::SimdFloatSqrt                0      0.00%     63.83% # Class of executed instruction
system.cpu02.op_class::SimdAes                      0      0.00%     63.83% # Class of executed instruction
system.cpu02.op_class::SimdAesMix                   0      0.00%     63.83% # Class of executed instruction
system.cpu02.op_class::SimdSha1Hash                 0      0.00%     63.83% # Class of executed instruction
system.cpu02.op_class::SimdSha1Hash2                0      0.00%     63.83% # Class of executed instruction
system.cpu02.op_class::SimdSha256Hash               0      0.00%     63.83% # Class of executed instruction
system.cpu02.op_class::SimdSha256Hash2              0      0.00%     63.83% # Class of executed instruction
system.cpu02.op_class::SimdShaSigma2                0      0.00%     63.83% # Class of executed instruction
system.cpu02.op_class::SimdShaSigma3                0      0.00%     63.83% # Class of executed instruction
system.cpu02.op_class::MemRead                   1171     24.45%     88.29% # Class of executed instruction
system.cpu02.op_class::MemWrite                   549     11.46%     99.75% # Class of executed instruction
system.cpu02.op_class::FloatMemRead                 0      0.00%     99.75% # Class of executed instruction
system.cpu02.op_class::FloatMemWrite               12      0.25%    100.00% # Class of executed instruction
system.cpu02.op_class::IprAccess                    0      0.00%    100.00% # Class of executed instruction
system.cpu02.op_class::InstPrefetch                 0      0.00%    100.00% # Class of executed instruction
system.cpu02.op_class::total                     4789                       # Class of executed instruction
system.cpu02.pwrStateClkGateDist::samples            1                       # Distribution of time spent in the clock gated state
system.cpu02.pwrStateClkGateDist::mean      134616000                       # Distribution of time spent in the clock gated state
system.cpu02.pwrStateClkGateDist::1000-5e+10            1    100.00%    100.00% # Distribution of time spent in the clock gated state
system.cpu02.pwrStateClkGateDist::min_value    134616000                       # Distribution of time spent in the clock gated state
system.cpu02.pwrStateClkGateDist::max_value    134616000                       # Distribution of time spent in the clock gated state
system.cpu02.pwrStateClkGateDist::total             1                       # Distribution of time spent in the clock gated state
system.cpu02.pwrStateResidencyTicks::ON     584297000                       # Cumulative time (in ticks) in various power states
system.cpu02.pwrStateResidencyTicks::CLK_GATED    134616000                       # Cumulative time (in ticks) in various power states
system.cpu03.Branches                             897                       # Number of branches fetched
system.cpu03.committedInsts                      4741                       # Number of instructions committed
system.cpu03.committedOps                        4747                       # Number of ops (including micro ops) committed
system.cpu03.dtb.accesses                           0                       # DTB accesses
system.cpu03.dtb.hits                               0                       # DTB hits
system.cpu03.dtb.misses                             0                       # DTB misses
system.cpu03.dtb.pwrStateResidencyTicks::UNDEFINED    718913000                       # Cumulative time (in ticks) in various power states
system.cpu03.dtb.read_accesses                      0                       # DTB read accesses
system.cpu03.dtb.read_hits                          0                       # DTB read hits
system.cpu03.dtb.read_misses                        0                       # DTB read misses
system.cpu03.dtb.write_accesses                     0                       # DTB write accesses
system.cpu03.dtb.write_hits                         0                       # DTB write hits
system.cpu03.dtb.write_misses                       0                       # DTB write misses
system.cpu03.idle_fraction                   0.983191                       # Percentage of idle cycles
system.cpu03.itb.accesses                           0                       # DTB accesses
system.cpu03.itb.hits                               0                       # DTB hits
system.cpu03.itb.misses                             0                       # DTB misses
system.cpu03.itb.pwrStateResidencyTicks::UNDEFINED    718913000                       # Cumulative time (in ticks) in various power states
system.cpu03.itb.read_accesses                      0                       # DTB read accesses
system.cpu03.itb.read_hits                          0                       # DTB read hits
system.cpu03.itb.read_misses                        0                       # DTB read misses
system.cpu03.itb.write_accesses                     0                       # DTB write accesses
system.cpu03.itb.write_hits                         0                       # DTB write hits
system.cpu03.itb.write_misses                       0                       # DTB write misses
system.cpu03.not_idle_fraction               0.016809                       # Percentage of non-idle cycles
system.cpu03.numCycles                        1437826                       # number of cpu cycles simulated
system.cpu03.numPwrStateTransitions                 2                       # Number of power state transitions
system.cpu03.numWorkItemsCompleted                  0                       # number of work items this cpu completed
system.cpu03.numWorkItemsStarted                    0                       # number of work items this cpu started
system.cpu03.num_busy_cycles             24169.001966                       # Number of busy cycles
system.cpu03.num_conditional_control_insts          456                       # number of instructions that are conditional controls
system.cpu03.num_fp_alu_accesses                   12                       # Number of float alu accesses
system.cpu03.num_fp_insts                          12                       # number of float instructions
system.cpu03.num_fp_register_reads                 12                       # number of times the floating registers were read
system.cpu03.num_fp_register_writes                 0                       # number of times the floating registers were written
system.cpu03.num_func_calls                       441                       # number of times a function call or return occured
system.cpu03.num_idle_cycles             1413656.998034                       # Number of idle cycles
system.cpu03.num_int_alu_accesses                4649                       # Number of integer alu accesses
system.cpu03.num_int_insts                       4649                       # number of integer instructions
system.cpu03.num_int_register_reads              5363                       # number of times the integer registers were read
system.cpu03.num_int_register_writes             3449                       # number of times the integer registers were written
system.cpu03.num_load_insts                      1158                       # Number of load instructions
system.cpu03.num_mem_refs                        1717                       # number of memory refs
system.cpu03.num_store_insts                      559                       # Number of store instructions
system.cpu03.num_vec_alu_accesses                   0                       # Number of vector alu accesses
system.cpu03.num_vec_insts                          0                       # number of vector instructions
system.cpu03.num_vec_register_reads                 0                       # number of times the vector registers were read
system.cpu03.num_vec_register_writes                0                       # number of times the vector registers were written
system.cpu03.op_class::No_OpClass                  10      0.21%      0.21% # Class of executed instruction
system.cpu03.op_class::IntAlu                    3019     63.57%     63.78% # Class of executed instruction
system.cpu03.op_class::IntMult                      1      0.02%     63.80% # Class of executed instruction
system.cpu03.op_class::IntDiv                       2      0.04%     63.85% # Class of executed instruction
system.cpu03.op_class::FloatAdd                     0      0.00%     63.85% # Class of executed instruction
system.cpu03.op_class::FloatCmp                     0      0.00%     63.85% # Class of executed instruction
system.cpu03.op_class::FloatCvt                     0      0.00%     63.85% # Class of executed instruction
system.cpu03.op_class::FloatMult                    0      0.00%     63.85% # Class of executed instruction
system.cpu03.op_class::FloatMultAcc                 0      0.00%     63.85% # Class of executed instruction
system.cpu03.op_class::FloatDiv                     0      0.00%     63.85% # Class of executed instruction
system.cpu03.op_class::FloatMisc                    0      0.00%     63.85% # Class of executed instruction
system.cpu03.op_class::FloatSqrt                    0      0.00%     63.85% # Class of executed instruction
system.cpu03.op_class::SimdAdd                      0      0.00%     63.85% # Class of executed instruction
system.cpu03.op_class::SimdAddAcc                   0      0.00%     63.85% # Class of executed instruction
system.cpu03.op_class::SimdAlu                      0      0.00%     63.85% # Class of executed instruction
system.cpu03.op_class::SimdCmp                      0      0.00%     63.85% # Class of executed instruction
system.cpu03.op_class::SimdCvt                      0      0.00%     63.85% # Class of executed instruction
system.cpu03.op_class::SimdMisc                     0      0.00%     63.85% # Class of executed instruction
system.cpu03.op_class::SimdMult                     0      0.00%     63.85% # Class of executed instruction
system.cpu03.op_class::SimdMultAcc                  0      0.00%     63.85% # Class of executed instruction
system.cpu03.op_class::SimdShift                    0      0.00%     63.85% # Class of executed instruction
system.cpu03.op_class::SimdShiftAcc                 0      0.00%     63.85% # Class of executed instruction
system.cpu03.op_class::SimdSqrt                     0      0.00%     63.85% # Class of executed instruction
system.cpu03.op_class::SimdFloatAdd                 0      0.00%     63.85% # Class of executed instruction
system.cpu03.op_class::SimdFloatAlu                 0      0.00%     63.85% # Class of executed instruction
system.cpu03.op_class::SimdFloatCmp                 0      0.00%     63.85% # Class of executed instruction
system.cpu03.op_class::SimdFloatCvt                 0      0.00%     63.85% # Class of executed instruction
system.cpu03.op_class::SimdFloatDiv                 0      0.00%     63.85% # Class of executed instruction
system.cpu03.op_class::SimdFloatMisc                0      0.00%     63.85% # Class of executed instruction
system.cpu03.op_class::SimdFloatMult                0      0.00%     63.85% # Class of executed instruction
system.cpu03.op_class::SimdFloatMultAcc             0      0.00%     63.85% # Class of executed instruction
system.cpu03.op_class::SimdFloatSqrt                0      0.00%     63.85% # Class of executed instruction
system.cpu03.op_class::SimdAes                      0      0.00%     63.85% # Class of executed instruction
system.cpu03.op_class::SimdAesMix                   0      0.00%     63.85% # Class of executed instruction
system.cpu03.op_class::SimdSha1Hash                 0      0.00%     63.85% # Class of executed instruction
system.cpu03.op_class::SimdSha1Hash2                0      0.00%     63.85% # Class of executed instruction
system.cpu03.op_class::SimdSha256Hash               0      0.00%     63.85% # Class of executed instruction
system.cpu03.op_class::SimdSha256Hash2              0      0.00%     63.85% # Class of executed instruction
system.cpu03.op_class::SimdShaSigma2                0      0.00%     63.85% # Class of executed instruction
system.cpu03.op_class::SimdShaSigma3                0      0.00%     63.85% # Class of executed instruction
system.cpu03.op_class::MemRead                   1162     24.47%     88.31% # Class of executed instruction
system.cpu03.op_class::MemWrite                   543     11.43%     99.75% # Class of executed instruction
system.cpu03.op_class::FloatMemRead                 0      0.00%     99.75% # Class of executed instruction
system.cpu03.op_class::FloatMemWrite               12      0.25%    100.00% # Class of executed instruction
system.cpu03.op_class::IprAccess                    0      0.00%    100.00% # Class of executed instruction
system.cpu03.op_class::InstPrefetch                 0      0.00%    100.00% # Class of executed instruction
system.cpu03.op_class::total                     4749                       # Class of executed instruction
system.cpu03.pwrStateClkGateDist::samples            1                       # Distribution of time spent in the clock gated state
system.cpu03.pwrStateClkGateDist::mean      124895000                       # Distribution of time spent in the clock gated state
system.cpu03.pwrStateClkGateDist::1000-5e+10            1    100.00%    100.00% # Distribution of time spent in the clock gated state
system.cpu03.pwrStateClkGateDist::min_value    124895000                       # Distribution of time spent in the clock gated state
system.cpu03.pwrStateClkGateDist::max_value    124895000                       # Distribution of time spent in the clock gated state
system.cpu03.pwrStateClkGateDist::total             1                       # Distribution of time spent in the clock gated state
system.cpu03.pwrStateResidencyTicks::ON     594018000                       # Cumulative time (in ticks) in various power states
system.cpu03.pwrStateResidencyTicks::CLK_GATED    124895000                       # Cumulative time (in ticks) in various power states
system.cpu04.Branches                             883                       # Number of branches fetched
system.cpu04.committedInsts                      4672                       # Number of instructions committed
system.cpu04.committedOps                        4678                       # Number of ops (including micro ops) committed
system.cpu04.dtb.accesses                           0                       # DTB accesses
system.cpu04.dtb.hits                               0                       # DTB hits
system.cpu04.dtb.misses                             0                       # DTB misses
system.cpu04.dtb.pwrStateResidencyTicks::UNDEFINED    718913000                       # Cumulative time (in ticks) in various power states
system.cpu04.dtb.read_accesses                      0                       # DTB read accesses
system.cpu04.dtb.read_hits                          0                       # DTB read hits
system.cpu04.dtb.read_misses                        0                       # DTB read misses
system.cpu04.dtb.write_accesses                     0                       # DTB write accesses
system.cpu04.dtb.write_hits                         0                       # DTB write hits
system.cpu04.dtb.write_misses                       0                       # DTB write misses
system.cpu04.idle_fraction                   0.982901                       # Percentage of idle cycles
system.cpu04.itb.accesses                           0                       # DTB accesses
system.cpu04.itb.hits                               0                       # DTB hits
system.cpu04.itb.misses                             0                       # DTB misses
system.cpu04.itb.pwrStateResidencyTicks::UNDEFINED    718913000                       # Cumulative time (in ticks) in various power states
system.cpu04.itb.read_accesses                      0                       # DTB read accesses
system.cpu04.itb.read_hits                          0                       # DTB read hits
system.cpu04.itb.read_misses                        0                       # DTB read misses
system.cpu04.itb.write_accesses                     0                       # DTB write accesses
system.cpu04.itb.write_hits                         0                       # DTB write hits
system.cpu04.itb.write_misses                       0                       # DTB write misses
system.cpu04.not_idle_fraction               0.017099                       # Percentage of non-idle cycles
system.cpu04.numCycles                        1437826                       # number of cpu cycles simulated
system.cpu04.numPwrStateTransitions                 2                       # Number of power state transitions
system.cpu04.numWorkItemsCompleted                  0                       # number of work items this cpu completed
system.cpu04.numWorkItemsStarted                    0                       # number of work items this cpu started
system.cpu04.num_busy_cycles             24585.001966                       # Number of busy cycles
system.cpu04.num_conditional_control_insts          447                       # number of instructions that are conditional controls
system.cpu04.num_fp_alu_accesses                   12                       # Number of float alu accesses
system.cpu04.num_fp_insts                          12                       # number of float instructions
system.cpu04.num_fp_register_reads                 12                       # number of times the floating registers were read
system.cpu04.num_fp_register_writes                 0                       # number of times the floating registers were written
system.cpu04.num_func_calls                       436                       # number of times a function call or return occured
system.cpu04.num_idle_cycles             1413240.998034                       # Number of idle cycles
system.cpu04.num_int_alu_accesses                4580                       # Number of integer alu accesses
system.cpu04.num_int_insts                       4580                       # number of integer instructions
system.cpu04.num_int_register_reads              5283                       # number of times the integer registers were read
system.cpu04.num_int_register_writes             3399                       # number of times the integer registers were written
system.cpu04.num_load_insts                      1141                       # Number of load instructions
system.cpu04.num_mem_refs                        1693                       # number of memory refs
system.cpu04.num_store_insts                      552                       # Number of store instructions
system.cpu04.num_vec_alu_accesses                   0                       # Number of vector alu accesses
system.cpu04.num_vec_insts                          0                       # number of vector instructions
system.cpu04.num_vec_register_reads                 0                       # number of times the vector registers were read
system.cpu04.num_vec_register_writes                0                       # number of times the vector registers were written
system.cpu04.op_class::No_OpClass                  10      0.21%      0.21% # Class of executed instruction
system.cpu04.op_class::IntAlu                    2974     63.55%     63.76% # Class of executed instruction
system.cpu04.op_class::IntMult                      1      0.02%     63.78% # Class of executed instruction
system.cpu04.op_class::IntDiv                       2      0.04%     63.82% # Class of executed instruction
system.cpu04.op_class::FloatAdd                     0      0.00%     63.82% # Class of executed instruction
system.cpu04.op_class::FloatCmp                     0      0.00%     63.82% # Class of executed instruction
system.cpu04.op_class::FloatCvt                     0      0.00%     63.82% # Class of executed instruction
system.cpu04.op_class::FloatMult                    0      0.00%     63.82% # Class of executed instruction
system.cpu04.op_class::FloatMultAcc                 0      0.00%     63.82% # Class of executed instruction
system.cpu04.op_class::FloatDiv                     0      0.00%     63.82% # Class of executed instruction
system.cpu04.op_class::FloatMisc                    0      0.00%     63.82% # Class of executed instruction
system.cpu04.op_class::FloatSqrt                    0      0.00%     63.82% # Class of executed instruction
system.cpu04.op_class::SimdAdd                      0      0.00%     63.82% # Class of executed instruction
system.cpu04.op_class::SimdAddAcc                   0      0.00%     63.82% # Class of executed instruction
system.cpu04.op_class::SimdAlu                      0      0.00%     63.82% # Class of executed instruction
system.cpu04.op_class::SimdCmp                      0      0.00%     63.82% # Class of executed instruction
system.cpu04.op_class::SimdCvt                      0      0.00%     63.82% # Class of executed instruction
system.cpu04.op_class::SimdMisc                     0      0.00%     63.82% # Class of executed instruction
system.cpu04.op_class::SimdMult                     0      0.00%     63.82% # Class of executed instruction
system.cpu04.op_class::SimdMultAcc                  0      0.00%     63.82% # Class of executed instruction
system.cpu04.op_class::SimdShift                    0      0.00%     63.82% # Class of executed instruction
system.cpu04.op_class::SimdShiftAcc                 0      0.00%     63.82% # Class of executed instruction
system.cpu04.op_class::SimdSqrt                     0      0.00%     63.82% # Class of executed instruction
system.cpu04.op_class::SimdFloatAdd                 0      0.00%     63.82% # Class of executed instruction
system.cpu04.op_class::SimdFloatAlu                 0      0.00%     63.82% # Class of executed instruction
system.cpu04.op_class::SimdFloatCmp                 0      0.00%     63.82% # Class of executed instruction
system.cpu04.op_class::SimdFloatCvt                 0      0.00%     63.82% # Class of executed instruction
system.cpu04.op_class::SimdFloatDiv                 0      0.00%     63.82% # Class of executed instruction
system.cpu04.op_class::SimdFloatMisc                0      0.00%     63.82% # Class of executed instruction
system.cpu04.op_class::SimdFloatMult                0      0.00%     63.82% # Class of executed instruction
system.cpu04.op_class::SimdFloatMultAcc             0      0.00%     63.82% # Class of executed instruction
system.cpu04.op_class::SimdFloatSqrt                0      0.00%     63.82% # Class of executed instruction
system.cpu04.op_class::SimdAes                      0      0.00%     63.82% # Class of executed instruction
system.cpu04.op_class::SimdAesMix                   0      0.00%     63.82% # Class of executed instruction
system.cpu04.op_class::SimdSha1Hash                 0      0.00%     63.82% # Class of executed instruction
system.cpu04.op_class::SimdSha1Hash2                0      0.00%     63.82% # Class of executed instruction
system.cpu04.op_class::SimdSha256Hash               0      0.00%     63.82% # Class of executed instruction
system.cpu04.op_class::SimdSha256Hash2              0      0.00%     63.82% # Class of executed instruction
system.cpu04.op_class::SimdShaSigma2                0      0.00%     63.82% # Class of executed instruction
system.cpu04.op_class::SimdShaSigma3                0      0.00%     63.82% # Class of executed instruction
system.cpu04.op_class::MemRead                   1145     24.47%     88.29% # Class of executed instruction
system.cpu04.op_class::MemWrite                   536     11.45%     99.74% # Class of executed instruction
system.cpu04.op_class::FloatMemRead                 0      0.00%     99.74% # Class of executed instruction
system.cpu04.op_class::FloatMemWrite               12      0.26%    100.00% # Class of executed instruction
system.cpu04.op_class::IprAccess                    0      0.00%    100.00% # Class of executed instruction
system.cpu04.op_class::InstPrefetch                 0      0.00%    100.00% # Class of executed instruction
system.cpu04.op_class::total                     4680                       # Class of executed instruction
system.cpu04.pwrStateClkGateDist::samples            1                       # Distribution of time spent in the clock gated state
system.cpu04.pwrStateClkGateDist::mean      115015000                       # Distribution of time spent in the clock gated state
system.cpu04.pwrStateClkGateDist::1000-5e+10            1    100.00%    100.00% # Distribution of time spent in the clock gated state
system.cpu04.pwrStateClkGateDist::min_value    115015000                       # Distribution of time spent in the clock gated state
system.cpu04.pwrStateClkGateDist::max_value    115015000                       # Distribution of time spent in the clock gated state
system.cpu04.pwrStateClkGateDist::total             1                       # Distribution of time spent in the clock gated state
system.cpu04.pwrStateResidencyTicks::ON     603898000                       # Cumulative time (in ticks) in various power states
system.cpu04.pwrStateResidencyTicks::CLK_GATED    115015000                       # Cumulative time (in ticks) in various power states
system.cpu05.Branches                             902                       # Number of branches fetched
system.cpu05.committedInsts                      4779                       # Number of instructions committed
system.cpu05.committedOps                        4785                       # Number of ops (including micro ops) committed
system.cpu05.dtb.accesses                           0                       # DTB accesses
system.cpu05.dtb.hits                               0                       # DTB hits
system.cpu05.dtb.misses                             0                       # DTB misses
system.cpu05.dtb.pwrStateResidencyTicks::UNDEFINED    718913000                       # Cumulative time (in ticks) in various power states
system.cpu05.dtb.read_accesses                      0                       # DTB read accesses
system.cpu05.dtb.read_hits                          0                       # DTB read hits
system.cpu05.dtb.read_misses                        0                       # DTB read misses
system.cpu05.dtb.write_accesses                     0                       # DTB write accesses
system.cpu05.dtb.write_hits                         0                       # DTB write hits
system.cpu05.dtb.write_misses                       0                       # DTB write misses
system.cpu05.idle_fraction                   0.983572                       # Percentage of idle cycles
system.cpu05.itb.accesses                           0                       # DTB accesses
system.cpu05.itb.hits                               0                       # DTB hits
system.cpu05.itb.misses                             0                       # DTB misses
system.cpu05.itb.pwrStateResidencyTicks::UNDEFINED    718913000                       # Cumulative time (in ticks) in various power states
system.cpu05.itb.read_accesses                      0                       # DTB read accesses
system.cpu05.itb.read_hits                          0                       # DTB read hits
system.cpu05.itb.read_misses                        0                       # DTB read misses
system.cpu05.itb.write_accesses                     0                       # DTB write accesses
system.cpu05.itb.write_hits                         0                       # DTB write hits
system.cpu05.itb.write_misses                       0                       # DTB write misses
system.cpu05.not_idle_fraction               0.016428                       # Percentage of non-idle cycles
system.cpu05.numCycles                        1437826                       # number of cpu cycles simulated
system.cpu05.numPwrStateTransitions                 2                       # Number of power state transitions
system.cpu05.numWorkItemsCompleted                  0                       # number of work items this cpu completed
system.cpu05.numWorkItemsStarted                    0                       # number of work items this cpu started
system.cpu05.num_busy_cycles             23620.001967                       # Number of busy cycles
system.cpu05.num_conditional_control_insts          460                       # number of instructions that are conditional controls
system.cpu05.num_fp_alu_accesses                   12                       # Number of float alu accesses
system.cpu05.num_fp_insts                          12                       # number of float instructions
system.cpu05.num_fp_register_reads                 12                       # number of times the floating registers were read
system.cpu05.num_fp_register_writes                 0                       # number of times the floating registers were written
system.cpu05.num_func_calls                       442                       # number of times a function call or return occured
system.cpu05.num_idle_cycles             1414205.998033                       # Number of idle cycles
system.cpu05.num_int_alu_accesses                4689                       # Number of integer alu accesses
system.cpu05.num_int_insts                       4689                       # number of integer instructions
system.cpu05.num_int_register_reads              5406                       # number of times the integer registers were read
system.cpu05.num_int_register_writes             3480                       # number of times the integer registers were written
system.cpu05.num_load_insts                      1167                       # Number of load instructions
system.cpu05.num_mem_refs                        1730                       # number of memory refs
system.cpu05.num_store_insts                      563                       # Number of store instructions
system.cpu05.num_vec_alu_accesses                   0                       # Number of vector alu accesses
system.cpu05.num_vec_insts                          0                       # number of vector instructions
system.cpu05.num_vec_register_reads                 0                       # number of times the vector registers were read
system.cpu05.num_vec_register_writes                0                       # number of times the vector registers were written
system.cpu05.op_class::No_OpClass                  10      0.21%      0.21% # Class of executed instruction
system.cpu05.op_class::IntAlu                    3044     63.59%     63.80% # Class of executed instruction
system.cpu05.op_class::IntMult                      1      0.02%     63.82% # Class of executed instruction
system.cpu05.op_class::IntDiv                       2      0.04%     63.86% # Class of executed instruction
system.cpu05.op_class::FloatAdd                     0      0.00%     63.86% # Class of executed instruction
system.cpu05.op_class::FloatCmp                     0      0.00%     63.86% # Class of executed instruction
system.cpu05.op_class::FloatCvt                     0      0.00%     63.86% # Class of executed instruction
system.cpu05.op_class::FloatMult                    0      0.00%     63.86% # Class of executed instruction
system.cpu05.op_class::FloatMultAcc                 0      0.00%     63.86% # Class of executed instruction
system.cpu05.op_class::FloatDiv                     0      0.00%     63.86% # Class of executed instruction
system.cpu05.op_class::FloatMisc                    0      0.00%     63.86% # Class of executed instruction
system.cpu05.op_class::FloatSqrt                    0      0.00%     63.86% # Class of executed instruction
system.cpu05.op_class::SimdAdd                      0      0.00%     63.86% # Class of executed instruction
system.cpu05.op_class::SimdAddAcc                   0      0.00%     63.86% # Class of executed instruction
system.cpu05.op_class::SimdAlu                      0      0.00%     63.86% # Class of executed instruction
system.cpu05.op_class::SimdCmp                      0      0.00%     63.86% # Class of executed instruction
system.cpu05.op_class::SimdCvt                      0      0.00%     63.86% # Class of executed instruction
system.cpu05.op_class::SimdMisc                     0      0.00%     63.86% # Class of executed instruction
system.cpu05.op_class::SimdMult                     0      0.00%     63.86% # Class of executed instruction
system.cpu05.op_class::SimdMultAcc                  0      0.00%     63.86% # Class of executed instruction
system.cpu05.op_class::SimdShift                    0      0.00%     63.86% # Class of executed instruction
system.cpu05.op_class::SimdShiftAcc                 0      0.00%     63.86% # Class of executed instruction
system.cpu05.op_class::SimdSqrt                     0      0.00%     63.86% # Class of executed instruction
system.cpu05.op_class::SimdFloatAdd                 0      0.00%     63.86% # Class of executed instruction
system.cpu05.op_class::SimdFloatAlu                 0      0.00%     63.86% # Class of executed instruction
system.cpu05.op_class::SimdFloatCmp                 0      0.00%     63.86% # Class of executed instruction
system.cpu05.op_class::SimdFloatCvt                 0      0.00%     63.86% # Class of executed instruction
system.cpu05.op_class::SimdFloatDiv                 0      0.00%     63.86% # Class of executed instruction
system.cpu05.op_class::SimdFloatMisc                0      0.00%     63.86% # Class of executed instruction
system.cpu05.op_class::SimdFloatMult                0      0.00%     63.86% # Class of executed instruction
system.cpu05.op_class::SimdFloatMultAcc             0      0.00%     63.86% # Class of executed instruction
system.cpu05.op_class::SimdFloatSqrt                0      0.00%     63.86% # Class of executed instruction
system.cpu05.op_class::SimdAes                      0      0.00%     63.86% # Class of executed instruction
system.cpu05.op_class::SimdAesMix                   0      0.00%     63.86% # Class of executed instruction
system.cpu05.op_class::SimdSha1Hash                 0      0.00%     63.86% # Class of executed instruction
system.cpu05.op_class::SimdSha1Hash2                0      0.00%     63.86% # Class of executed instruction
system.cpu05.op_class::SimdSha256Hash               0      0.00%     63.86% # Class of executed instruction
system.cpu05.op_class::SimdSha256Hash2              0      0.00%     63.86% # Class of executed instruction
system.cpu05.op_class::SimdShaSigma2                0      0.00%     63.86% # Class of executed instruction
system.cpu05.op_class::SimdShaSigma3                0      0.00%     63.86% # Class of executed instruction
system.cpu05.op_class::MemRead                   1171     24.46%     88.32% # Class of executed instruction
system.cpu05.op_class::MemWrite                   547     11.43%     99.75% # Class of executed instruction
system.cpu05.op_class::FloatMemRead                 0      0.00%     99.75% # Class of executed instruction
system.cpu05.op_class::FloatMemWrite               12      0.25%    100.00% # Class of executed instruction
system.cpu05.op_class::IprAccess                    0      0.00%    100.00% # Class of executed instruction
system.cpu05.op_class::InstPrefetch                 0      0.00%    100.00% # Class of executed instruction
system.cpu05.op_class::total                     4787                       # Class of executed instruction
system.cpu05.pwrStateClkGateDist::samples            1                       # Distribution of time spent in the clock gated state
system.cpu05.pwrStateClkGateDist::mean      105629000                       # Distribution of time spent in the clock gated state
system.cpu05.pwrStateClkGateDist::1000-5e+10            1    100.00%    100.00% # Distribution of time spent in the clock gated state
system.cpu05.pwrStateClkGateDist::min_value    105629000                       # Distribution of time spent in the clock gated state
system.cpu05.pwrStateClkGateDist::max_value    105629000                       # Distribution of time spent in the clock gated state
system.cpu05.pwrStateClkGateDist::total             1                       # Distribution of time spent in the clock gated state
system.cpu05.pwrStateResidencyTicks::ON     613284000                       # Cumulative time (in ticks) in various power states
system.cpu05.pwrStateResidencyTicks::CLK_GATED    105629000                       # Cumulative time (in ticks) in various power states
system.cpu06.Branches                             898                       # Number of branches fetched
system.cpu06.committedInsts                      4749                       # Number of instructions committed
system.cpu06.committedOps                        4755                       # Number of ops (including micro ops) committed
system.cpu06.dtb.accesses                           0                       # DTB accesses
system.cpu06.dtb.hits                               0                       # DTB hits
system.cpu06.dtb.misses                             0                       # DTB misses
system.cpu06.dtb.pwrStateResidencyTicks::UNDEFINED    718913000                       # Cumulative time (in ticks) in various power states
system.cpu06.dtb.read_accesses                      0                       # DTB read accesses
system.cpu06.dtb.read_hits                          0                       # DTB read hits
system.cpu06.dtb.read_misses                        0                       # DTB read misses
system.cpu06.dtb.write_accesses                     0                       # DTB write accesses
system.cpu06.dtb.write_hits                         0                       # DTB write hits
system.cpu06.dtb.write_misses                       0                       # DTB write misses
system.cpu06.idle_fraction                   0.983620                       # Percentage of idle cycles
system.cpu06.itb.accesses                           0                       # DTB accesses
system.cpu06.itb.hits                               0                       # DTB hits
system.cpu06.itb.misses                             0                       # DTB misses
system.cpu06.itb.pwrStateResidencyTicks::UNDEFINED    718913000                       # Cumulative time (in ticks) in various power states
system.cpu06.itb.read_accesses                      0                       # DTB read accesses
system.cpu06.itb.read_hits                          0                       # DTB read hits
system.cpu06.itb.read_misses                        0                       # DTB read misses
system.cpu06.itb.write_accesses                     0                       # DTB write accesses
system.cpu06.itb.write_hits                         0                       # DTB write hits
system.cpu06.itb.write_misses                       0                       # DTB write misses
system.cpu06.not_idle_fraction               0.016380                       # Percentage of non-idle cycles
system.cpu06.numCycles                        1437825                       # number of cpu cycles simulated
system.cpu06.numPwrStateTransitions                 2                       # Number of power state transitions
system.cpu06.numWorkItemsCompleted                  0                       # number of work items this cpu completed
system.cpu06.numWorkItemsStarted                    0                       # number of work items this cpu started
system.cpu06.num_busy_cycles             23551.985587                       # Number of busy cycles
system.cpu06.num_conditional_control_insts          456                       # number of instructions that are conditional controls
system.cpu06.num_fp_alu_accesses                   12                       # Number of float alu accesses
system.cpu06.num_fp_insts                          12                       # number of float instructions
system.cpu06.num_fp_register_reads                 12                       # number of times the floating registers were read
system.cpu06.num_fp_register_writes                 0                       # number of times the floating registers were written
system.cpu06.num_func_calls                       442                       # number of times a function call or return occured
system.cpu06.num_idle_cycles             1414273.014413                       # Number of idle cycles
system.cpu06.num_int_alu_accesses                4657                       # Number of integer alu accesses
system.cpu06.num_int_insts                       4657                       # number of integer instructions
system.cpu06.num_int_register_reads              5371                       # number of times the integer registers were read
system.cpu06.num_int_register_writes             3456                       # number of times the integer registers were written
system.cpu06.num_load_insts                      1161                       # Number of load instructions
system.cpu06.num_mem_refs                        1721                       # number of memory refs
system.cpu06.num_store_insts                      560                       # Number of store instructions
system.cpu06.num_vec_alu_accesses                   0                       # Number of vector alu accesses
system.cpu06.num_vec_insts                          0                       # number of vector instructions
system.cpu06.num_vec_register_reads                 0                       # number of times the vector registers were read
system.cpu06.num_vec_register_writes                0                       # number of times the vector registers were written
system.cpu06.op_class::No_OpClass                  10      0.21%      0.21% # Class of executed instruction
system.cpu06.op_class::IntAlu                    3023     63.55%     63.76% # Class of executed instruction
system.cpu06.op_class::IntMult                      1      0.02%     63.78% # Class of executed instruction
system.cpu06.op_class::IntDiv                       2      0.04%     63.82% # Class of executed instruction
system.cpu06.op_class::FloatAdd                     0      0.00%     63.82% # Class of executed instruction
system.cpu06.op_class::FloatCmp                     0      0.00%     63.82% # Class of executed instruction
system.cpu06.op_class::FloatCvt                     0      0.00%     63.82% # Class of executed instruction
system.cpu06.op_class::FloatMult                    0      0.00%     63.82% # Class of executed instruction
system.cpu06.op_class::FloatMultAcc                 0      0.00%     63.82% # Class of executed instruction
system.cpu06.op_class::FloatDiv                     0      0.00%     63.82% # Class of executed instruction
system.cpu06.op_class::FloatMisc                    0      0.00%     63.82% # Class of executed instruction
system.cpu06.op_class::FloatSqrt                    0      0.00%     63.82% # Class of executed instruction
system.cpu06.op_class::SimdAdd                      0      0.00%     63.82% # Class of executed instruction
system.cpu06.op_class::SimdAddAcc                   0      0.00%     63.82% # Class of executed instruction
system.cpu06.op_class::SimdAlu                      0      0.00%     63.82% # Class of executed instruction
system.cpu06.op_class::SimdCmp                      0      0.00%     63.82% # Class of executed instruction
system.cpu06.op_class::SimdCvt                      0      0.00%     63.82% # Class of executed instruction
system.cpu06.op_class::SimdMisc                     0      0.00%     63.82% # Class of executed instruction
system.cpu06.op_class::SimdMult                     0      0.00%     63.82% # Class of executed instruction
system.cpu06.op_class::SimdMultAcc                  0      0.00%     63.82% # Class of executed instruction
system.cpu06.op_class::SimdShift                    0      0.00%     63.82% # Class of executed instruction
system.cpu06.op_class::SimdShiftAcc                 0      0.00%     63.82% # Class of executed instruction
system.cpu06.op_class::SimdSqrt                     0      0.00%     63.82% # Class of executed instruction
system.cpu06.op_class::SimdFloatAdd                 0      0.00%     63.82% # Class of executed instruction
system.cpu06.op_class::SimdFloatAlu                 0      0.00%     63.82% # Class of executed instruction
system.cpu06.op_class::SimdFloatCmp                 0      0.00%     63.82% # Class of executed instruction
system.cpu06.op_class::SimdFloatCvt                 0      0.00%     63.82% # Class of executed instruction
system.cpu06.op_class::SimdFloatDiv                 0      0.00%     63.82% # Class of executed instruction
system.cpu06.op_class::SimdFloatMisc                0      0.00%     63.82% # Class of executed instruction
system.cpu06.op_class::SimdFloatMult                0      0.00%     63.82% # Class of executed instruction
system.cpu06.op_class::SimdFloatMultAcc             0      0.00%     63.82% # Class of executed instruction
system.cpu06.op_class::SimdFloatSqrt                0      0.00%     63.82% # Class of executed instruction
system.cpu06.op_class::SimdAes                      0      0.00%     63.82% # Class of executed instruction
system.cpu06.op_class::SimdAesMix                   0      0.00%     63.82% # Class of executed instruction
system.cpu06.op_class::SimdSha1Hash                 0      0.00%     63.82% # Class of executed instruction
system.cpu06.op_class::SimdSha1Hash2                0      0.00%     63.82% # Class of executed instruction
system.cpu06.op_class::SimdSha256Hash               0      0.00%     63.82% # Class of executed instruction
system.cpu06.op_class::SimdSha256Hash2              0      0.00%     63.82% # Class of executed instruction
system.cpu06.op_class::SimdShaSigma2                0      0.00%     63.82% # Class of executed instruction
system.cpu06.op_class::SimdShaSigma3                0      0.00%     63.82% # Class of executed instruction
system.cpu06.op_class::MemRead                   1165     24.49%     88.31% # Class of executed instruction
system.cpu06.op_class::MemWrite                   544     11.44%     99.75% # Class of executed instruction
system.cpu06.op_class::FloatMemRead                 0      0.00%     99.75% # Class of executed instruction
system.cpu06.op_class::FloatMemWrite               12      0.25%    100.00% # Class of executed instruction
system.cpu06.op_class::IprAccess                    0      0.00%    100.00% # Class of executed instruction
system.cpu06.op_class::InstPrefetch                 0      0.00%    100.00% # Class of executed instruction
system.cpu06.op_class::total                     4757                       # Class of executed instruction
system.cpu06.pwrStateClkGateDist::samples            1                       # Distribution of time spent in the clock gated state
system.cpu06.pwrStateClkGateDist::mean       95859000                       # Distribution of time spent in the clock gated state
system.cpu06.pwrStateClkGateDist::1000-5e+10            1    100.00%    100.00% # Distribution of time spent in the clock gated state
system.cpu06.pwrStateClkGateDist::min_value     95859000                       # Distribution of time spent in the clock gated state
[...]
system.ruby.network.int_links39.credit_link.pwrStateResidencyTicks::UNDEFINED    718913000                       # Cumulative time (in ticks) in various power states
system.ruby.network.int_links39.network_link.pwrStateResidencyTicks::UNDEFINED    718913000                       # Cumulative time (in ticks) in various power states
system.ruby.network.int_links40.credit_link.pwrStateResidencyTicks::UNDEFINED    718913000                       # Cumulative time (in ticks) in various power states
system.ruby.network.int_links40.network_link.pwrStateResidencyTicks::UNDEFINED    718913000                       # Cumulative time (in ticks) in various power states
system.ruby.network.int_links41.credit_link.pwrStateResidencyTicks::UNDEFINED    718913000                       # Cumulative time (in ticks) in various power states
system.ruby.network.int_links41.network_link.pwrStateResidencyTicks::UNDEFINED    718913000                       # Cumulative time (in ticks) in various power states
system.ruby.network.int_links42.credit_link.pwrStateResidencyTicks::UNDEFINED    718913000                       # Cumulative time (in ticks) in various power states
system.ruby.network.int_links42.network_link.pwrStateResidencyTicks::UNDEFINED    718913000                       # Cumulative time (in ticks) in various power states
system.ruby.network.int_links43.credit_link.pwrStateResidencyTicks::UNDEFINED    718913000                       # Cumulative time (in ticks) in various power states
system.ruby.network.int_links43.network_link.pwrStateResidencyTicks::UNDEFINED    718913000                       # Cumulative time (in ticks) in various power states
system.ruby.network.int_links44.credit_link.pwrStateResidencyTicks::UNDEFINED    718913000                       # Cumulative time (in ticks) in various power states
system.ruby.network.int_links44.network_link.pwrStateResidencyTicks::UNDEFINED    718913000                       # Cumulative time (in ticks) in various power states
system.ruby.network.int_links45.credit_link.pwrStateResidencyTicks::UNDEFINED    718913000                       # Cumulative time (in ticks) in various power states
system.ruby.network.int_links45.network_link.pwrStateResidencyTicks::UNDEFINED    718913000                       # Cumulative time (in ticks) in various power states
system.ruby.network.int_links46.credit_link.pwrStateResidencyTicks::UNDEFINED    718913000                       # Cumulative time (in ticks) in various power states
system.ruby.network.int_links46.network_link.pwrStateResidencyTicks::UNDEFINED    718913000                       # Cumulative time (in ticks) in various power states
system.ruby.network.int_links47.credit_link.pwrStateResidencyTicks::UNDEFINED    718913000                       # Cumulative time (in ticks) in various power states
system.ruby.network.int_links47.network_link.pwrStateResidencyTicks::UNDEFINED    718913000                       # Cumulative time (in ticks) in various power states
system.ruby.network.netifs00.pwrStateResidencyTicks::UNDEFINED    718913000                       # Cumulative time (in ticks) in various power states
system.ruby.network.netifs01.pwrStateResidencyTicks::UNDEFINED    718913000                       # Cumulative time (in ticks) in various power states
system.ruby.network.netifs02.pwrStateResidencyTicks::UNDEFINED    718913000                       # Cumulative time (in ticks) in various power states
system.ruby.network.netifs03.pwrStateResidencyTicks::UNDEFINED    718913000                       # Cumulative time (in ticks) in various power states
system.ruby.network.netifs04.pwrStateResidencyTicks::UNDEFINED    718913000                       # Cumulative time (in ticks) in various power states
system.ruby.network.netifs05.pwrStateResidencyTicks::UNDEFINED    718913000                       # Cumulative time (in ticks) in various power states
system.ruby.network.netifs06.pwrStateResidencyTicks::UNDEFINED    718913000                       # Cumulative time (in ticks) in various power states
system.ruby.network.netifs07.pwrStateResidencyTicks::UNDEFINED    718913000                       # Cumulative time (in ticks) in various power states
system.ruby.network.netifs08.pwrStateResidencyTicks::UNDEFINED    718913000                       # Cumulative time (in ticks) in various power states
system.ruby.network.netifs09.pwrStateResidencyTicks::UNDEFINED    718913000                       # Cumulative time (in ticks) in various power states
system.ruby.network.netifs10.pwrStateResidencyTicks::UNDEFINED    718913000                       # Cumulative time (in ticks) in various power states
system.ruby.network.netifs11.pwrStateResidencyTicks::UNDEFINED    718913000                       # Cumulative time (in ticks) in various power states
system.ruby.network.netifs12.pwrStateResidencyTicks::UNDEFINED    718913000                       # Cumulative time (in ticks) in various power states
system.ruby.network.netifs13.pwrStateResidencyTicks::UNDEFINED    718913000                       # Cumulative time (in ticks) in various power states
system.ruby.network.netifs14.pwrStateResidencyTicks::UNDEFINED    718913000                       # Cumulative time (in ticks) in various power states
system.ruby.network.netifs15.pwrStateResidencyTicks::UNDEFINED    718913000                       # Cumulative time (in ticks) in various power states
system.ruby.network.netifs16.pwrStateResidencyTicks::UNDEFINED    718913000                       # Cumulative time (in ticks) in various power states
system.ruby.network.netifs17.pwrStateResidencyTicks::UNDEFINED    718913000                       # Cumulative time (in ticks) in various power states
system.ruby.network.netifs18.pwrStateResidencyTicks::UNDEFINED    718913000                       # Cumulative time (in ticks) in various power states
system.ruby.network.netifs19.pwrStateResidencyTicks::UNDEFINED    718913000                       # Cumulative time (in ticks) in various power states
system.ruby.network.netifs20.pwrStateResidencyTicks::UNDEFINED    718913000                       # Cumulative time (in ticks) in various power states
system.ruby.network.netifs21.pwrStateResidencyTicks::UNDEFINED    718913000                       # Cumulative time (in ticks) in various power states
system.ruby.network.netifs22.pwrStateResidencyTicks::UNDEFINED    718913000                       # Cumulative time (in ticks) in various power states
system.ruby.network.netifs23.pwrStateResidencyTicks::UNDEFINED    718913000                       # Cumulative time (in ticks) in various power states
system.ruby.network.netifs24.pwrStateResidencyTicks::UNDEFINED    718913000                       # Cumulative time (in ticks) in various power states
system.ruby.network.netifs25.pwrStateResidencyTicks::UNDEFINED    718913000                       # Cumulative time (in ticks) in various power states
system.ruby.network.netifs26.pwrStateResidencyTicks::UNDEFINED    718913000                       # Cumulative time (in ticks) in various power states
system.ruby.network.netifs27.pwrStateResidencyTicks::UNDEFINED    718913000                       # Cumulative time (in ticks) in various power states
system.ruby.network.netifs28.pwrStateResidencyTicks::UNDEFINED    718913000                       # Cumulative time (in ticks) in various power states
system.ruby.network.netifs29.pwrStateResidencyTicks::UNDEFINED    718913000                       # Cumulative time (in ticks) in various power states
system.ruby.network.netifs30.pwrStateResidencyTicks::UNDEFINED    718913000                       # Cumulative time (in ticks) in various power states
system.ruby.network.netifs31.pwrStateResidencyTicks::UNDEFINED    718913000                       # Cumulative time (in ticks) in various power states
system.ruby.network.netifs32.pwrStateResidencyTicks::UNDEFINED    718913000                       # Cumulative time (in ticks) in various power states
system.ruby.network.netifs33.pwrStateResidencyTicks::UNDEFINED    718913000                       # Cumulative time (in ticks) in various power states
system.ruby.network.netifs34.pwrStateResidencyTicks::UNDEFINED    718913000                       # Cumulative time (in ticks) in various power states
system.ruby.network.netifs35.pwrStateResidencyTicks::UNDEFINED    718913000                       # Cumulative time (in ticks) in various power states
system.ruby.network.packet_network_latency |      554457                       |      589536                       |      149873                      
system.ruby.network.packet_queueing_latency |       44280                       |       28919                       |        6386                      
system.ruby.network.packets_injected     |       19273     42.70%     42.70% |       19473     43.15%     85.85% |        6386     14.15%    100.00%
system.ruby.network.packets_injected::total        45132                      
system.ruby.network.packets_received     |       19273     42.70%     42.70% |       19473     43.15%     85.85% |        6386     14.15%    100.00%
system.ruby.network.packets_received::total        45132                      
system.ruby.network.pwrStateResidencyTicks::UNDEFINED    718913000                       # Cumulative time (in ticks) in various power states
system.ruby.network.routers00.buffer_reads        91597                      
system.ruby.network.routers00.buffer_writes        91597                      
system.ruby.network.routers00.crossbar_activity        91597                      
system.ruby.network.routers00.pwrStateResidencyTicks::UNDEFINED    718913000                       # Cumulative time (in ticks) in various power states
system.ruby.network.routers00.sw_input_arbiter_activity        91624                      
system.ruby.network.routers00.sw_output_arbiter_activity        91597                      
system.ruby.network.routers01.buffer_reads        40244                      
system.ruby.network.routers01.buffer_writes        40244                      
system.ruby.network.routers01.crossbar_activity        40244                      
system.ruby.network.routers01.pwrStateResidencyTicks::UNDEFINED    718913000                       # Cumulative time (in ticks) in various power states
system.ruby.network.routers01.sw_input_arbiter_activity        40268                      
system.ruby.network.routers01.sw_output_arbiter_activity        40244                      
system.ruby.network.routers02.buffer_reads        26606                      
system.ruby.network.routers02.buffer_writes        26606                      
system.ruby.network.routers02.crossbar_activity        26606                      
system.ruby.network.routers02.pwrStateResidencyTicks::UNDEFINED    718913000                       # Cumulative time (in ticks) in various power states
system.ruby.network.routers02.sw_input_arbiter_activity        26619                      
system.ruby.network.routers02.sw_output_arbiter_activity        26606                      
system.ruby.network.routers03.buffer_reads        15254                      
system.ruby.network.routers03.buffer_writes        15254                      
system.ruby.network.routers03.crossbar_activity        15254                      
system.ruby.network.routers03.pwrStateResidencyTicks::UNDEFINED    718913000                       # Cumulative time (in ticks) in various power states
system.ruby.network.routers03.sw_input_arbiter_activity        15256                      
system.ruby.network.routers03.sw_output_arbiter_activity        15254                      
system.ruby.network.routers04.buffer_reads        51357                      
system.ruby.network.routers04.buffer_writes        51357                      
system.ruby.network.routers04.crossbar_activity        51357                      
system.ruby.network.routers04.pwrStateResidencyTicks::UNDEFINED    718913000                       # Cumulative time (in ticks) in various power states
system.ruby.network.routers04.sw_input_arbiter_activity        51372                      
system.ruby.network.routers04.sw_output_arbiter_activity        51357                      
system.ruby.network.routers05.buffer_reads        20907                      
system.ruby.network.routers05.buffer_writes        20907                      
system.ruby.network.routers05.crossbar_activity        20907                      
system.ruby.network.routers05.pwrStateResidencyTicks::UNDEFINED    718913000                       # Cumulative time (in ticks) in various power states
system.ruby.network.routers05.sw_input_arbiter_activity        20918                      
system.ruby.network.routers05.sw_output_arbiter_activity        20907                      
system.ruby.network.routers06.buffer_reads        14843                      
system.ruby.network.routers06.buffer_writes        14843                      
system.ruby.network.routers06.crossbar_activity        14843                      
system.ruby.network.routers06.pwrStateResidencyTicks::UNDEFINED    718913000                       # Cumulative time (in ticks) in various power states
system.ruby.network.routers06.sw_input_arbiter_activity        14854                      
system.ruby.network.routers06.sw_output_arbiter_activity        14843                      
system.ruby.network.routers07.buffer_reads        11709                      
system.ruby.network.routers07.buffer_writes        11709                      
system.ruby.network.routers07.crossbar_activity        11709                      
system.ruby.network.routers07.pwrStateResidencyTicks::UNDEFINED    718913000                       # Cumulative time (in ticks) in various power states
system.ruby.network.routers07.sw_input_arbiter_activity        11715                      
system.ruby.network.routers07.sw_output_arbiter_activity        11709                      
system.ruby.network.routers08.buffer_reads        34722                      
system.ruby.network.routers08.buffer_writes        34722                      
system.ruby.network.routers08.crossbar_activity        34722                      
system.ruby.network.routers08.pwrStateResidencyTicks::UNDEFINED    718913000                       # Cumulative time (in ticks) in various power states
system.ruby.network.routers08.sw_input_arbiter_activity        34743                      
system.ruby.network.routers08.sw_output_arbiter_activity        34722                      
system.ruby.network.routers09.buffer_reads        16284                      
system.ruby.network.routers09.buffer_writes        16284                      
system.ruby.network.routers09.crossbar_activity        16284                      
system.ruby.network.routers09.pwrStateResidencyTicks::UNDEFINED    718913000                       # Cumulative time (in ticks) in various power states
system.ruby.network.routers09.sw_input_arbiter_activity        16292                      
system.ruby.network.routers09.sw_output_arbiter_activity        16284                      
system.ruby.network.routers10.buffer_reads        14845                      
system.ruby.network.routers10.buffer_writes        14845                      
system.ruby.network.routers10.crossbar_activity        14845                      
system.ruby.network.routers10.pwrStateResidencyTicks::UNDEFINED    718913000                       # Cumulative time (in ticks) in various power states
system.ruby.network.routers10.sw_input_arbiter_activity        14861                      
system.ruby.network.routers10.sw_output_arbiter_activity        14845                      
system.ruby.network.routers11.buffer_reads        10970                      
system.ruby.network.routers11.buffer_writes        10970                      
system.ruby.network.routers11.crossbar_activity        10970                      
system.ruby.network.routers11.pwrStateResidencyTicks::UNDEFINED    718913000                       # Cumulative time (in ticks) in various power states
system.ruby.network.routers11.sw_input_arbiter_activity        10983                      
system.ruby.network.routers11.sw_output_arbiter_activity        10970                      
system.ruby.network.routers12.buffer_reads        24644                      
system.ruby.network.routers12.buffer_writes        24644                      
system.ruby.network.routers12.crossbar_activity        24644                      
system.ruby.network.routers12.pwrStateResidencyTicks::UNDEFINED    718913000                       # Cumulative time (in ticks) in various power states
system.ruby.network.routers12.sw_input_arbiter_activity        24648                      
system.ruby.network.routers12.sw_output_arbiter_activity        24644                      
system.ruby.network.routers13.buffer_reads        20842                      
system.ruby.network.routers13.buffer_writes        20842                      
system.ruby.network.routers13.crossbar_activity        20842                      
system.ruby.network.routers13.pwrStateResidencyTicks::UNDEFINED    718913000                       # Cumulative time (in ticks) in various power states
system.ruby.network.routers13.sw_input_arbiter_activity        20854                      
system.ruby.network.routers13.sw_output_arbiter_activity        20842                      
system.ruby.network.routers14.buffer_reads        16057                      
system.ruby.network.routers14.buffer_writes        16057                      
system.ruby.network.routers14.crossbar_activity        16057                      
system.ruby.network.routers14.pwrStateResidencyTicks::UNDEFINED    718913000                       # Cumulative time (in ticks) in various power states
system.ruby.network.routers14.sw_input_arbiter_activity        16060                      
system.ruby.network.routers14.sw_output_arbiter_activity        16057                      
system.ruby.network.routers15.buffer_reads        10367                      
system.ruby.network.routers15.buffer_writes        10367                      
system.ruby.network.routers15.crossbar_activity        10367                      
system.ruby.network.routers15.pwrStateResidencyTicks::UNDEFINED    718913000                       # Cumulative time (in ticks) in various power states
system.ruby.network.routers15.sw_input_arbiter_activity        10370                      
system.ruby.network.routers15.sw_output_arbiter_activity        10367                      
system.ruby.outstanding_req_hist_seqr::bucket_size            1                      
system.ruby.outstanding_req_hist_seqr::max_bucket            9                      
system.ruby.outstanding_req_hist_seqr::samples       272479                      
system.ruby.outstanding_req_hist_seqr::mean            1                      
system.ruby.outstanding_req_hist_seqr::gmean            1                      
system.ruby.outstanding_req_hist_seqr    |           0      0.00%      0.00% |      272479    100.00%    100.00% |           0      0.00%    100.00% |           0      0.00%    100.00% |           0      0.00%    100.00% |           0      0.00%    100.00% |           0      0.00%    100.00% |           0      0.00%    100.00% |           0      0.00%    100.00% |           0      0.00%    100.00%
system.ruby.outstanding_req_hist_seqr::total       272479                      
system.ruby.pwrStateResidencyTicks::UNDEFINED    718913000                       # Cumulative time (in ticks) in various power states
system.sys_port_proxy.pwrStateResidencyTicks::UNDEFINED    718913000                       # Cumulative time (in ticks) in various power states
system.voltage_domain.voltage                       1                       # Voltage in Volts

---------- End Simulation Statistics   ----------
