
---------- Begin Simulation Statistics ----------
final_tick                                  856771000                       # Number of ticks from beginning of simulation (restored from checkpoints and never reset)
host_inst_rate                                  24163                       # Simulator instruction rate (inst/s)
host_mem_usage                                5159724                       # Number of bytes of host memory used
host_op_rate                                    24241                       # Simulator op (including micro ops) rate (op/s)
host_seconds                                     4.78                       # Real time elapsed on the host
host_tick_rate                              179180355                       # Simulator tick rate (ticks/s)
sim_freq                                 1000000000000                       # Frequency of simulated ticks
sim_insts                                      115532                       # Number of instructions simulated
sim_ops                                        115912                       # Number of ops (including micro ops) simulated
sim_seconds                                  0.000857                       # Number of seconds simulated
sim_ticks                                   856771000                       # Number of ticks simulated
system.clk_domain.clock                          1000                       # Clock period in ticks
system.cpu00.Branches                           22354                       # Number of branches fetched
system.cpu00.committedInsts                    100001                       # Number of instructions committed
system.cpu00.committedOps                      100294                       # Number of ops (including micro ops) committed
system.cpu00.dtb.accesses                           0                       # DTB accesses
system.cpu00.dtb.hits                               0                       # DTB hits
system.cpu00.dtb.misses                             0                       # DTB misses
system.cpu00.dtb.pwrStateResidencyTicks::UNDEFINED    856771000                       # Cumulative time (in ticks) in various power states
system.cpu00.dtb.read_accesses                      0                       # DTB read accesses
system.cpu00.dtb.read_hits                          0                       # DTB read hits
system.cpu00.dtb.read_misses                        0                       # DTB read misses
system.cpu00.dtb.write_accesses                     0                       # DTB write accesses
system.cpu00.dtb.write_hits                         0                       # DTB write hits
system.cpu00.dtb.write_misses                       0                       # DTB write misses
system.cpu00.idle_fraction                   0.003495                       # Percentage of idle cycles
system.cpu00.itb.accesses                           0                       # DTB accesses
system.cpu00.itb.hits                               0                       # DTB hits
system.cpu00.itb.misses                             0                       # DTB misses
system.cpu00.itb.pwrStateResidencyTicks::UNDEFINED    856771000                       # Cumulative time (in ticks) in various power states
system.cpu00.itb.read_accesses                      0                       # DTB read accesses
system.cpu00.itb.read_hits                          0                       # DTB read hits
system.cpu00.itb.read_misses                        0                       # DTB read misses
system.cpu00.itb.write_accesses                     0                       # DTB write accesses
system.cpu00.itb.write_hits                         0                       # DTB write hits
system.cpu00.itb.write_misses                       0                       # DTB write misses
system.cpu00.not_idle_fraction               0.996505                       # Percentage of non-idle cycles
system.cpu00.numCycles                        1713542                       # number of cpu cycles simulated
system.cpu00.numPwrStateTransitions                 2                       # Number of power state transitions
system.cpu00.numWorkItemsCompleted                  0                       # number of work items this cpu completed
system.cpu00.numWorkItemsStarted                    0                       # number of work items this cpu started
system.cpu00.num_busy_cycles             1707554.000007                       # Number of busy cycles
system.cpu00.num_conditional_control_insts        15942                       # number of instructions that are conditional controls
system.cpu00.num_fp_alu_accesses                   12                       # Number of float alu accesses
system.cpu00.num_fp_insts                          12                       # number of float instructions
system.cpu00.num_fp_register_reads                 12                       # number of times the floating registers were read
system.cpu00.num_fp_register_writes                 0                       # number of times the floating registers were written
system.cpu00.num_func_calls                      6412                       # number of times a function call or return occured
system.cpu00.num_idle_cycles              5987.999993                       # Number of idle cycles
system.cpu00.num_int_alu_accesses               98837                       # Number of integer alu accesses
system.cpu00.num_int_insts                      98837                       # number of integer instructions
system.cpu00.num_int_register_reads            120857                       # number of times the integer registers were read
system.cpu00.num_int_register_writes            64473                       # number of times the integer registers were written
system.cpu00.num_load_insts                     20283                       # Number of load instructions
system.cpu00.num_mem_refs                       36542                       # number of memory refs
system.cpu00.num_store_insts                    16259                       # Number of store instructions
system.cpu00.num_vec_alu_accesses                   0                       # Number of vector alu accesses
system.cpu00.num_vec_insts                          0                       # number of vector instructions
system.cpu00.num_vec_register_reads                 0                       # number of times the vector registers were read
system.cpu00.num_vec_register_writes                0                       # number of times the vector registers were written
system.cpu00.op_class::No_OpClass                 859      0.86%      0.86% # Class of executed instruction
system.cpu00.op_class::IntAlu                   62929     62.70%     63.56% # Class of executed instruction
system.cpu00.op_class::IntMult                     30      0.03%     63.59% # Class of executed instruction
system.cpu00.op_class::IntDiv                       6      0.01%     63.59% # Class of executed instruction
system.cpu00.op_class::FloatAdd                     0      0.00%     63.59% # Class of executed instruction
system.cpu00.op_class::FloatCmp                     0      0.00%     63.59% # Class of executed instruction
system.cpu00.op_class::FloatCvt                     0      0.00%     63.59% # Class of executed instruction
system.cpu00.op_class::FloatMult                    0      0.00%     63.59% # Class of executed instruction
system.cpu00.op_class::FloatMultAcc                 0      0.00%     63.59% # Class of executed instruction
system.cpu00.op_class::FloatDiv                     0      0.00%     63.59% # Class of executed instruction
system.cpu00.op_class::FloatMisc                    0      0.00%     63.59% # Class of executed instruction
system.cpu00.op_class::FloatSqrt                    0      0.00%     63.59% # Class of executed instruction
system.cpu00.op_class::SimdAdd                      0      0.00%     63.59% # Class of executed instruction
system.cpu00.op_class::SimdAddAcc                   0      0.00%     63.59% # Class of executed instruction
system.cpu00.op_class::SimdAlu                      0      0.00%     63.59% # Class of executed instruction
system.cpu00.op_class::SimdCmp                      0      0.00%     63.59% # Class of executed instruction
system.cpu00.op_class::SimdCvt                      0      0.00%     63.59% # Class of executed instruction
system.cpu00.op_class::SimdMisc                     0      0.00%     63.59% # Class of executed instruction
system.cpu00.op_class::SimdMult                     0      0.00%     63.59% # Class of executed instruction
system.cpu00.op_class::SimdMultAcc                  0      0.00%     63.59% # Class of executed instruction
system.cpu00.op_class::SimdShift                    0      0.00%     63.59% # Class of executed instruction
system.cpu00.op_class::SimdShiftAcc                 0      0.00%     63.59% # Class of executed instruction
system.cpu00.op_class::SimdSqrt                     0      0.00%     63.59% # Class of executed instruction
system.cpu00.op_class::SimdFloatAdd                 0      0.00%     63.59% # Class of executed instruction
system.cpu00.op_class::SimdFloatAlu                 0      0.00%     63.59% # Class of executed instruction
system.cpu00.op_class::SimdFloatCmp                 0      0.00%     63.59% # Class of executed instruction
system.cpu00.op_class::SimdFloatCvt                 0      0.00%     63.59% # Class of executed instruction
system.cpu00.op_class::SimdFloatDiv                 0      0.00%     63.59% # Class of executed instruction
system.cpu00.op_class::SimdFloatMisc                0      0.00%     63.59% # Class of executed instruction
system.cpu00.op_class::SimdFloatMult                0      0.00%     63.59% # Class of executed instruction
system.cpu00.op_class::SimdFloatMultAcc             0      0.00%     63.59% # Class of executed instruction
system.cpu00.op_class::SimdFloatSqrt                0      0.00%     63.59% # Class of executed instruction
system.cpu00.op_class::SimdAes                      0      0.00%     63.59% # Class of executed instruction
system.cpu00.op_class::SimdAesMix                   0      0.00%     63.59% # Class of executed instruction
system.cpu00.op_class::SimdSha1Hash                 0      0.00%     63.59% # Class of executed instruction
system.cpu00.op_class::SimdSha1Hash2                0      0.00%     63.59% # Class of executed instruction
system.cpu00.op_class::SimdSha256Hash               0      0.00%     63.59% # Class of executed instruction
system.cpu00.op_class::SimdSha256Hash2              0      0.00%     63.59% # Class of executed instruction
system.cpu00.op_class::SimdShaSigma2                0      0.00%     63.59% # Class of executed instruction
system.cpu00.op_class::SimdShaSigma3                0      0.00%     63.59% # Class of executed instruction
system.cpu00.op_class::MemRead                  20568     20.49%     84.08% # Class of executed instruction
system.cpu00.op_class::MemWrite                 15962     15.90%     99.99% # Class of executed instruction
system.cpu00.op_class::FloatMemRead                 0      0.00%     99.99% # Class of executed instruction
system.cpu00.op_class::FloatMemWrite               12      0.01%    100.00% # Class of executed instruction
system.cpu00.op_class::IprAccess                    0      0.00%    100.00% # Class of executed instruction
system.cpu00.op_class::InstPrefetch                 0      0.00%    100.00% # Class of executed instruction
system.cpu00.op_class::total                   100366                       # Class of executed instruction
system.cpu00.pwrStateClkGateDist::samples            1                       # Distribution of time spent in the clock gated state
system.cpu00.pwrStateClkGateDist::mean        2994000                       # Distribution of time spent in the clock gated state
system.cpu00.pwrStateClkGateDist::1000-5e+10            1    100.00%    100.00% # Distribution of time spent in the clock gated state
system.cpu00.pwrStateClkGateDist::min_value      2994000                       # Distribution of time spent in the clock gated state
system.cpu00.pwrStateClkGateDist::max_value      2994000                       # Distribution of time spent in the clock gated state
system.cpu00.pwrStateClkGateDist::total             1                       # Distribution of time spent in the clock gated state
system.cpu00.pwrStateResidencyTicks::ON     853777000                       # Cumulative time (in ticks) in various power states
system.cpu00.pwrStateResidencyTicks::CLK_GATED      2994000                       # Cumulative time (in ticks) in various power states
system.cpu00.workload.numSyscalls                  71                       # Number of system calls
system.cpu01.Branches                             190                       # Number of branches fetched
system.cpu01.committedInsts                       980                       # Number of instructions committed
system.cpu01.committedOps                         986                       # Number of ops (including micro ops) committed
system.cpu01.dtb.accesses                           0                       # DTB accesses
system.cpu01.dtb.hits                               0                       # DTB hits
system.cpu01.dtb.misses                             0                       # DTB misses
system.cpu01.dtb.pwrStateResidencyTicks::UNDEFINED    856771000                       # Cumulative time (in ticks) in various power states
system.cpu01.dtb.read_accesses                      0                       # DTB read accesses
system.cpu01.dtb.read_hits                          0                       # DTB read hits
system.cpu01.dtb.read_misses                        0                       # DTB read misses
system.cpu01.dtb.write_accesses                     0                       # DTB write accesses
system.cpu01.dtb.write_hits                         0                       # DTB write hits
system.cpu01.dtb.write_misses                       0                       # DTB write misses
system.cpu01.idle_fraction                   0.980157                       # Percentage of idle cycles
system.cpu01.itb.accesses                           0                       # DTB accesses
system.cpu01.itb.hits                               0                       # DTB hits
system.cpu01.itb.misses                             0                       # DTB misses
system.cpu01.itb.pwrStateResidencyTicks::UNDEFINED    856771000                       # Cumulative time (in ticks) in various power states
system.cpu01.itb.read_accesses                      0                       # DTB read accesses
system.cpu01.itb.read_hits                          0                       # DTB read hits
system.cpu01.itb.read_misses                        0                       # DTB read misses
system.cpu01.itb.write_accesses                     0                       # DTB write accesses
system.cpu01.itb.write_hits                         0                       # DTB write hits
system.cpu01.itb.write_misses                       0                       # DTB write misses
system.cpu01.not_idle_fraction               0.019843                       # Percentage of non-idle cycles
system.cpu01.numCycles                        1713542                       # number of cpu cycles simulated
system.cpu01.numPwrStateTransitions                 2                       # Number of power state transitions
system.cpu01.numWorkItemsCompleted                  0                       # number of work items this cpu completed
system.cpu01.numWorkItemsStarted                    0                       # number of work items this cpu started
system.cpu01.num_busy_cycles             34002.001960                       # Number of busy cycles
system.cpu01.num_conditional_control_insts           99                       # number of instructions that are conditional controls
system.cpu01.num_fp_alu_accesses                   12                       # Number of float alu accesses
system.cpu01.num_fp_insts                          12                       # number of float instructions
system.cpu01.num_fp_register_reads                 12                       # number of times the floating registers were read
system.cpu01.num_fp_register_writes                 0                       # number of times the floating registers were written
system.cpu01.num_func_calls                        91                       # number of times a function call or return occured
system.cpu01.num_idle_cycles             1679539.998040                       # Number of idle cycles
system.cpu01.num_int_alu_accesses                 965                       # Number of integer alu accesses
system.cpu01.num_int_insts                        965                       # number of integer instructions
system.cpu01.num_int_register_reads              1126                       # number of times the integer registers were read
system.cpu01.num_int_register_writes              670                       # number of times the integer registers were written
system.cpu01.num_load_insts                       220                       # Number of load instructions
system.cpu01.num_mem_refs                         387                       # number of memory refs
system.cpu01.num_store_insts                      167                       # Number of store instructions
system.cpu01.num_vec_alu_accesses                   0                       # Number of vector alu accesses
system.cpu01.num_vec_insts                          0                       # number of vector instructions
system.cpu01.num_vec_register_reads                 0                       # number of times the vector registers were read
system.cpu01.num_vec_register_writes                0                       # number of times the vector registers were written
system.cpu01.op_class::No_OpClass                  10      1.01%      1.01% # Class of executed instruction
system.cpu01.op_class::IntAlu                     588     59.51%     60.53% # Class of executed instruction
system.cpu01.op_class::IntMult                      1      0.10%     60.63% # Class of executed instruction
system.cpu01.op_class::IntDiv                       2      0.20%     60.83% # Class of executed instruction
system.cpu01.op_class::FloatAdd                     0      0.00%     60.83% # Class of executed instruction
system.cpu01.op_class::FloatCmp                     0      0.00%     60.83% # Class of executed instruction
system.cpu01.op_class::FloatCvt                     0      0.00%     60.83% # Class of executed instruction
system.cpu01.op_class::FloatMult                    0      0.00%     60.83% # Class of executed instruction
system.cpu01.op_class::FloatMultAcc                 0      0.00%     60.83% # Class of executed instruction
system.cpu01.op_class::FloatDiv                     0      0.00%     60.83% # Class of executed instruction
system.cpu01.op_class::FloatMisc                    0      0.00%     60.83% # Class of executed instruction
system.cpu01.op_class::FloatSqrt                    0      0.00%     60.83% # Class of executed instruction
system.cpu01.op_class::SimdAdd                      0      0.00%     60.83% # Class of executed instruction
system.cpu01.op_class::SimdAddAcc                   0      0.00%     60.83% # Class of executed instruction
system.cpu01.op_class::SimdAlu                      0      0.00%     60.83% # Class of executed instruction
system.cpu01.op_class::SimdCmp                      0      0.00%     60.83% # Class of executed instruction
system.cpu01.op_class::SimdCvt                      0      0.00%     60.83% # Class of executed instruction
system.cpu01.op_class::SimdMisc                     0      0.00%     60.83% # Class of executed instruction
system.cpu01.op_class::SimdMult                     0      0.00%     60.83% # Class of executed instruction
system.cpu01.op_class::SimdMultAcc                  0      0.00%     60.83% # Class of executed instruction
system.cpu01.op_class::SimdShift                    0      0.00%     60.83% # Class of executed instruction
system.cpu01.op_class::SimdShiftAcc                 0      0.00%     60.83% # Class of executed instruction
system.cpu01.op_class::SimdSqrt                     0      0.00%     60.83% # Class of executed instruction
system.cpu01.op_class::SimdFloatAdd                 0      0.00%     60.83% # Class of executed instruction
system.cpu01.op_class::SimdFloatAlu                 0      0.00%     60.83% # Class of executed instruction
system.cpu01.op_class::SimdFloatCmp                 0      0.00%     60.83% # Class of executed instruction
system.cpu01.op_class::SimdFloatCvt                 0      0.00%     60.83% # Class of executed instruction
system.cpu01.op_class::SimdFloatDiv                 0      0.00%     60.83% # Class of executed instruction
system.cpu01.op_class::SimdFloatMisc                0      0.00%     60.83% # Class of executed instruction
system.cpu01.op_class::SimdFloatMult                0      0.00%     60.83% # Class of executed instruction
system.cpu01.op_class::SimdFloatMultAcc             0      0.00%     60.83% # Class of executed instruction
system.cpu01.op_class::SimdFloatSqrt                0      0.00%     60.83% # Class of executed instruction
system.cpu01.op_class::SimdAes                      0      0.00%     60.83% # Class of executed instruction
system.cpu01.op_class::SimdAesMix                   0      0.00%     60.83% # Class of executed instruction
system.cpu01.op_class::SimdSha1Hash                 0      0.00%     60.83% # Class of executed instruction
system.cpu01.op_class::SimdSha1Hash2                0      0.00%     60.83% # Class of executed instruction
system.cpu01.op_class::SimdSha256Hash               0      0.00%     60.83% # Class of executed instruction
system.cpu01.op_class::SimdSha256Hash2              0      0.00%     60.83% # Class of executed instruction
system.cpu01.op_class::SimdShaSigma2                0      0.00%     60.83% # Class of executed instruction
system.cpu01.op_class::SimdShaSigma3                0      0.00%     60.83% # Class of executed instruction
system.cpu01.op_class::MemRead                    224     22.67%     83.50% # Class of executed instruction
system.cpu01.op_class::MemWrite                   151     15.28%     98.79% # Class of executed instruction
system.cpu01.op_class::FloatMemRead                 0      0.00%     98.79% # Class of executed instruction
system.cpu01.op_class::FloatMemWrite               12      1.21%    100.00% # Class of executed instruction
system.cpu01.op_class::IprAccess                    0      0.00%    100.00% # Class of executed instruction
system.cpu01.op_class::InstPrefetch                 0      0.00%    100.00% # Class of executed instruction
system.cpu01.op_class::total                      988                       # Class of executed instruction
system.cpu01.pwrStateClkGateDist::samples            1                       # Distribution of time spent in the clock gated state
system.cpu01.pwrStateClkGateDist::mean      178770500                       # Distribution of time spent in the clock gated state
system.cpu01.pwrStateClkGateDist::1000-5e+10            1    100.00%    100.00% # Distribution of time spent in the clock gated state
system.cpu01.pwrStateClkGateDist::min_value    178770500                       # Distribution of time spent in the clock gated state
system.cpu01.pwrStateClkGateDist::max_value    178770500                       # Distribution of time spent in the clock gated state
system.cpu01.pwrStateClkGateDist::total             1                       # Distribution of time spent in the clock gated state
system.cpu01.pwrStateResidencyTicks::ON     678000500                       # Cumulative time (in ticks) in various power states
system.cpu01.pwrStateResidencyTicks::CLK_GATED    178770500                       # Cumulative time (in ticks) in various power states
system.cpu02.Branches                             217                       # Number of branches fetched
system.cpu02.committedInsts                      1112                       # Number of instructions committed
system.cpu02.committedOps                        1118                       # Number of ops (including micro ops) committed
system.cpu02.dtb.accesses                           0                       # DTB accesses
system.cpu02.dtb.hits                               0                       # DTB hits
system.cpu02.dtb.misses                             0                       # DTB misses
system.cpu02.dtb.pwrStateResidencyTicks::UNDEFINED    856771000                       # Cumulative time (in ticks) in various power states
system.cpu02.dtb.read_accesses                      0                       # DTB read accesses
system.cpu02.dtb.read_hits                          0                       # DTB read hits
system.cpu02.dtb.read_misses                        0                       # DTB read misses
system.cpu02.dtb.write_accesses                     0                       # DTB write accesses
system.cpu02.dtb.write_hits                         0                       # DTB write hits
system.cpu02.dtb.write_misses                       0                       # DTB write misses
system.cpu02.idle_fraction                   0.983554                       # Percentage of idle cycles
system.cpu02.itb.accesses                           0                       # DTB accesses
system.cpu02.itb.hits                               0                       # DTB hits
system.cpu02.itb.misses                             0                       # DTB misses
system.cpu02.itb.pwrStateResidencyTicks::UNDEFINED    856771000                       # Cumulative time (in ticks) in various power states
system.cpu02.itb.read_accesses                      0                       # DTB read accesses
system.cpu02.itb.read_hits                          0                       # DTB read hits
system.cpu02.itb.read_misses                        0                       # DTB read misses
system.cpu02.itb.write_accesses                     0                       # DTB write accesses
system.cpu02.itb.write_hits                         0                       # DTB write hits
system.cpu02.itb.write_misses                       0                       # DTB write misses
system.cpu02.not_idle_fraction               0.016446                       # Percentage of non-idle cycles
system.cpu02.numCycles                        1713307                       # number of cpu cycles simulated
system.cpu02.numPwrStateTransitions                 2                       # Number of power state transitions
system.cpu02.numWorkItemsCompleted                  0                       # number of work items this cpu completed
system.cpu02.numWorkItemsStarted                    0                       # number of work items this cpu started
system.cpu02.num_busy_cycles             28177.137145                       # Number of busy cycles
system.cpu02.num_conditional_control_insts          114                       # number of instructions that are conditional controls
system.cpu02.num_fp_alu_accesses                   12                       # Number of float alu accesses
system.cpu02.num_fp_insts                          12                       # number of float instructions
system.cpu02.num_fp_register_reads                 12                       # number of times the floating registers were read
system.cpu02.num_fp_register_writes                 0                       # number of times the floating registers were written
system.cpu02.num_func_calls                       103                       # number of times a function call or return occured
system.cpu02.num_idle_cycles             1685129.862855                       # Number of idle cycles
system.cpu02.num_int_alu_accesses                1094                       # Number of integer alu accesses
system.cpu02.num_int_insts                       1094                       # number of integer instructions
system.cpu02.num_int_register_reads              1279                       # number of times the integer registers were read
system.cpu02.num_int_register_writes              766                       # number of times the integer registers were written
system.cpu02.num_load_insts                       252                       # Number of load instructions
system.cpu02.num_mem_refs                         432                       # number of memory refs
system.cpu02.num_store_insts                      180                       # Number of store instructions
system.cpu02.num_vec_alu_accesses                   0                       # Number of vector alu accesses
system.cpu02.num_vec_insts                          0                       # number of vector instructions
system.cpu02.num_vec_register_reads                 0                       # number of times the vector registers were read
system.cpu02.num_vec_register_writes                0                       # number of times the vector registers were written
system.cpu02.op_class::No_OpClass                  10      0.89%      0.89% # Class of executed instruction
system.cpu02.op_class::IntAlu                     675     60.27%     61.16% # Class of executed instruction
system.cpu02.op_class::IntMult                      1      0.09%     61.25% # Class of executed instruction
system.cpu02.op_class::IntDiv                       2      0.18%     61.43% # Class of executed instruction
system.cpu02.op_class::FloatAdd                     0      0.00%     61.43% # Class of executed instruction
system.cpu02.op_class::FloatCmp                     0      0.00%     61.43% # Class of executed instruction
system.cpu02.op_class::FloatCvt                     0      0.00%     61.43% # Class of executed instruction
system.cpu02.op_class::FloatMult                    0      0.00%     61.43% # Class of executed instruction
system.cpu02.op_class::FloatMultAcc                 0      0.00%     61.43% # Class of executed instruction
system.cpu02.op_class::FloatDiv                     0      0.00%     61.43% # Class of executed instruction
system.cpu02.op_class::FloatMisc                    0      0.00%     61.43% # Class of executed instruction
system.cpu02.op_class::FloatSqrt                    0      0.00%     61.43% # Class of executed instruction
system.cpu02.op_class::SimdAdd                      0      0.00%     61.43% # Class of executed instruction
system.cpu02.op_class::SimdAddAcc                   0      0.00%     61.43% # Class of executed instruction
system.cpu02.op_class::SimdAlu                      0      0.00%     61.43% # Class of executed instruction
system.cpu02.op_class::SimdCmp                      0      0.00%     61.43% # Class of executed instruction
system.cpu02.op_class::SimdCvt                      0      0.00%     61.43% # Class of executed instruction
system.cpu02.op_class::SimdMisc                     0      0.00%     61.43% # Class of executed instruction
system.cpu02.op_class::SimdMult                     0      0.00%     61.43% # Class of executed instruction
system.cpu02.op_class::SimdMultAcc                  0      0.00%     61.43% # Class of executed instruction
system.cpu02.op_class::SimdShift                    0      0.00%     61.43% # Class of executed instruction
system.cpu02.op_class::SimdShiftAcc                 0      0.00%     61.43% # Class of executed instruction
system.cpu02.op_class::SimdSqrt                     0      0.00%     61.43% # Class of executed instruction
system.cpu02.op_class::SimdFloatAdd                 0      0.00%     61.43% # Class of executed instruction
system.cpu02.op_class::SimdFloatAlu                 0      0.00%     61.43% # Class of executed instruction
system.cpu02.op_class::SimdFloatCmp                 0      0.00%     61.43% # Class of executed instruction
system.cpu02.op_class::SimdFloatCvt                 0      0.00%     61.43% # Class of executed instruction
system.cpu02.op_class::SimdFloatDiv                 0      0.00%     61.43% # Class of executed instruction
system.cpu02.op_class::SimdFloatMisc                0      0.00%     61.43% # Class of executed instruction
system.cpu02.op_class::SimdFloatMult                0      0.00%     61.43% # Class of executed instruction
system.cpu02.op_class::SimdFloatMultAcc             0      0.00%     61.43% # Class of executed instruction
system.cpu02.op_class::SimdFloatSqrt                0      0.00%     61.43% # Class of executed instruction
system.cpu02.op_class::SimdAes                      0      0.00%     61.43% # Class of executed instruction
system.cpu02.op_class::SimdAesMix                   0      0.00%     61.43% # Class of executed instruction
system.cpu02.op_class::SimdSha1Hash                 0      0.00%     61.43% # Class of executed instruction
system.cpu02.op_class::SimdSha1Hash2                0      0.00%     61.43% # Class of executed instruction
system.cpu02.op_class::SimdSha256Hash               0      0.00%     61.43% # Class of executed instruction
system.cpu02.op_class::SimdSha256Hash2              0      0.00%     61.43% # Class of executed instruction
system.cpu02.op_class::SimdShaSigma2                0      0.00%     61.43% # Class of executed instruction
system.cpu02.op_class::SimdShaSigma3                0      0.00%     61.43% # Class of executed instruction
system.cpu02.op_class::MemRead                    256     22.86%     84.29% # Class of executed instruction
system.cpu02.op_class::MemWrite                   164     14.64%     98.93% # Class of executed instruction
system.cpu02.op_class::FloatMemRead                 0      0.00%     98.93% # Class of executed instruction
system.cpu02.op_class::FloatMemWrite               12      1.07%    100.00% # Class of executed instruction
system.cpu02.op_class::IprAccess                    0      0.00%    100.00% # Class of executed instruction
system.cpu02.op_class::InstPrefetch                 0      0.00%    100.00% # Class of executed instruction
system.cpu02.op_class::total                     1120                       # Class of executed instruction
system.cpu02.pwrStateClkGateDist::samples            1                       # Distribution of time spent in the clock gated state
system.cpu02.pwrStateClkGateDist::mean      168585500                       # Distribution of time spent in the clock gated state
system.cpu02.pwrStateClkGateDist::1000-5e+10            1    100.00%    100.00% # Distribution of time spent in the clock gated state
system.cpu02.pwrStateClkGateDist::min_value    168585500                       # Distribution of time spent in the clock gated state
system.cpu02.pwrStateClkGateDist::max_value    168585500                       # Distribution of time spent in the clock gated state
system.cpu02.pwrStateClkGateDist::total             1                       # Distribution of time spent in the clock gated state
system.cpu02.pwrStateResidencyTicks::ON     688185500                       # Cumulative time (in ticks) in various power states
system.cpu02.pwrStateResidencyTicks::CLK_GATED    168585500                       # Cumulative time (in ticks) in various power states
system.cpu03.Branches                             213                       # Number of branches fetched
system.cpu03.committedInsts                      1084                       # Number of instructions committed
system.cpu03.committedOps                        1090                       # Number of ops (including micro ops) committed
system.cpu03.dtb.accesses                           0                       # DTB accesses
system.cpu03.dtb.hits                               0                       # DTB hits
system.cpu03.dtb.misses                             0                       # DTB misses
system.cpu03.dtb.pwrStateResidencyTicks::UNDEFINED    856771000                       # Cumulative time (in ticks) in various power states
system.cpu03.dtb.read_accesses                      0                       # DTB read accesses
system.cpu03.dtb.read_hits                          0                       # DTB read hits
system.cpu03.dtb.read_misses                        0                       # DTB read misses
system.cpu03.dtb.write_accesses                     0                       # DTB write accesses
system.cpu03.dtb.write_hits                         0                       # DTB write hits
system.cpu03.dtb.write_misses                       0                       # DTB write misses
system.cpu03.idle_fraction                   0.982530                       # Percentage of idle cycles
system.cpu03.itb.accesses                           0                       # DTB accesses
system.cpu03.itb.hits                               0                       # DTB hits
system.cpu03.itb.misses                             0                       # DTB misses
system.cpu03.itb.pwrStateResidencyTicks::UNDEFINED    856771000                       # Cumulative time (in ticks) in various power states
system.cpu03.itb.read_accesses                      0                       # DTB read accesses
system.cpu03.itb.read_hits                          0                       # DTB read hits
system.cpu03.itb.read_misses                        0                       # DTB read misses
system.cpu03.itb.write_accesses                     0                       # DTB write accesses
system.cpu03.itb.write_hits                         0                       # DTB write hits
system.cpu03.itb.write_misses                       0                       # DTB write misses
system.cpu03.not_idle_fraction               0.017470                       # Percentage of non-idle cycles
system.cpu03.numCycles                        1713331                       # number of cpu cycles simulated
system.cpu03.numPwrStateTransitions                 2                       # Number of power state transitions
system.cpu03.numWorkItemsCompleted                  0                       # number of work items this cpu completed
system.cpu03.numWorkItemsStarted                    0                       # number of work items this cpu started
system.cpu03.num_busy_cycles             29931.315866                       # Number of busy cycles
system.cpu03.num_conditional_control_insts          110                       # number of instructions that are conditional controls
system.cpu03.num_fp_alu_accesses                   12                       # Number of float alu accesses
system.cpu03.num_fp_insts                          12                       # number of float instructions
system.cpu03.num_fp_register_reads                 12                       # number of times the floating registers were read
system.cpu03.num_fp_register_writes                 0                       # number of times the floating registers were written
system.cpu03.num_func_calls                       103                       # number of times a function call or return occured
system.cpu03.num_idle_cycles             1683399.684134                       # Number of idle cycles
system.cpu03.num_int_alu_accesses                1064                       # Number of integer alu accesses
system.cpu03.num_int_insts                       1064                       # number of integer instructions
system.cpu03.num_int_register_reads              1244                       # number of times the integer registers were read
system.cpu03.num_int_register_writes              743                       # number of times the integer registers were written
system.cpu03.num_load_insts                       243                       # Number of load instructions
system.cpu03.num_mem_refs                         420                       # number of memory refs
system.cpu03.num_store_insts                      177                       # Number of store instructions
system.cpu03.num_vec_alu_accesses                   0                       # Number of vector alu accesses
system.cpu03.num_vec_insts                          0                       # number of vector instructions
system.cpu03.num_vec_register_reads                 0                       # number of times the vector registers were read
system.cpu03.num_vec_register_writes                0                       # number of times the vector registers were written
system.cpu03.op_class::No_OpClass                  10      0.92%      0.92% # Class of executed instruction
system.cpu03.op_class::IntAlu                     659     60.35%     61.26% # Class of executed instruction
system.cpu03.op_class::IntMult                      1      0.09%     61.36% # Class of executed instruction
system.cpu03.op_class::IntDiv                       2      0.18%     61.54% # Class of executed instruction
system.cpu03.op_class::FloatAdd                     0      0.00%     61.54% # Class of executed instruction
system.cpu03.op_class::FloatCmp                     0      0.00%     61.54% # Class of executed instruction
system.cpu03.op_class::FloatCvt                     0      0.00%     61.54% # Class of executed instruction
system.cpu03.op_class::FloatMult                    0      0.00%     61.54% # Class of executed instruction
system.cpu03.op_class::FloatMultAcc                 0      0.00%     61.54% # Class of executed instruction
system.cpu03.op_class::FloatDiv                     0      0.00%     61.54% # Class of executed instruction
system.cpu03.op_class::FloatMisc                    0      0.00%     61.54% # Class of executed instruction
system.cpu03.op_class::FloatSqrt                    0      0.00%     61.54% # Class of executed instruction
system.cpu03.op_class::SimdAdd                      0      0.00%     61.54% # Class of executed instruction
system.cpu03.op_class::SimdAddAcc                   0      0.00%     61.54% # Class of executed instruction
system.cpu03.op_class::SimdAlu                      0      0.00%     61.54% # Class of executed instruction
system.cpu03.op_class::SimdCmp                      0      0.00%     61.54% # Class of executed instruction
system.cpu03.op_class::SimdCvt                      0      0.00%     61.54% # Class of executed instruction
system.cpu03.op_class::SimdMisc                     0      0.00%     61.54% # Class of executed instruction
system.cpu03.op_class::SimdMult                     0      0.00%     61.54% # Class of executed instruction
system.cpu03.op_class::SimdMultAcc                  0      0.00%     61.54% # Class of executed instruction
system.cpu03.op_class::SimdShift                    0      0.00%     61.54% # Class of executed instruction
system.cpu03.op_class::SimdShiftAcc                 0      0.00%     61.54% # Class of executed instruction
system.cpu03.op_class::SimdSqrt                     0      0.00%     61.54% # Class of executed instruction
system.cpu03.op_class::SimdFloatAdd                 0      0.00%     61.54% # Class of executed instruction
system.cpu03.op_class::SimdFloatAlu                 0      0.00%     61.54% # Class of executed instruction
system.cpu03.op_class::SimdFloatCmp                 0      0.00%     61.54% # Class of executed instruction
system.cpu03.op_class::SimdFloatCvt                 0      0.00%     61.54% # Class of executed instruction
system.cpu03.op_class::SimdFloatDiv                 0      0.00%     61.54% # Class of executed instruction
system.cpu03.op_class::SimdFloatMisc                0      0.00%     61.54% # Class of executed instruction
system.cpu03.op_class::SimdFloatMult                0      0.00%     61.54% # Class of executed instruction
system.cpu03.op_class::SimdFloatMultAcc             0      0.00%     61.54% # Class of executed instruction
system.cpu03.op_class::SimdFloatSqrt                0      0.00%     61.54% # Class of executed instruction
system.cpu03.op_class::SimdAes                      0      0.00%     61.54% # Class of executed instruction
system.cpu03.op_class::SimdAesMix                   0      0.00%     61.54% # Class of executed instruction
system.cpu03.op_class::SimdSha1Hash                 0      0.00%     61.54% # Class of executed instruction
system.cpu03.op_class::SimdSha1Hash2                0      0.00%     61.54% # Class of executed instruction
system.cpu03.op_class::SimdSha256Hash               0      0.00%     61.54% # Class of executed instruction
system.cpu03.op_class::SimdSha256Hash2              0      0.00%     61.54% # Class of executed instruction
system.cpu03.op_class::SimdShaSigma2                0      0.00%     61.54% # Class of executed instruction
system.cpu03.op_class::SimdShaSigma3                0      0.00%     61.54% # Class of executed instruction
system.cpu03.op_class::MemRead                    247     22.62%     84.16% # Class of executed instruction
system.cpu03.op_class::MemWrite                   161     14.74%     98.90% # Class of executed instruction
system.cpu03.op_class::FloatMemRead                 0      0.00%     98.90% # Class of executed instruction
system.cpu03.op_class::FloatMemWrite               12      1.10%    100.00% # Class of executed instruction
system.cpu03.op_class::IprAccess                    0      0.00%    100.00% # Class of executed instruction
system.cpu03.op_class::InstPrefetch                 0      0.00%    100.00% # Class of executed instruction
system.cpu03.op_class::total                     1092                       # Class of executed instruction
system.cpu03.pwrStateClkGateDist::samples            1                       # Distribution of time spent in the clock gated state
system.cpu03.pwrStateClkGateDist::mean      154636500                       # Distribution of time spent in the clock gated state
system.cpu03.pwrStateClkGateDist::1000-5e+10            1    100.00%    100.00% # Distribution of time spent in the clock gated state
system.cpu03.pwrStateClkGateDist::min_value    154636500                       # Distribution of time spent in the clock gated state
system.cpu03.pwrStateClkGateDist::max_value    154636500                       # Distribution of time spent in the clock gated state
system.cpu03.pwrStateClkGateDist::total             1                       # Distribution of time spent in the clock gated state
system.cpu03.pwrStateResidencyTicks::ON     702134500                       # Cumulative time (in ticks) in various power states
system.cpu03.pwrStateResidencyTicks::CLK_GATED    154636500                       # Cumulative time (in ticks) in various power states
system.cpu04.Branches                             197                       # Number of branches fetched
system.cpu04.committedInsts                       995                       # Number of instructions committed
system.cpu04.committedOps                        1001                       # Number of ops (including micro ops) committed
system.cpu04.dtb.accesses                           0                       # DTB accesses
system.cpu04.dtb.hits                               0                       # DTB hits
system.cpu04.dtb.misses                             0                       # DTB misses
system.cpu04.dtb.pwrStateResidencyTicks::UNDEFINED    856771000                       # Cumulative time (in ticks) in various power states
system.cpu04.dtb.read_accesses                      0                       # DTB read accesses
system.cpu04.dtb.read_hits                          0                       # DTB read hits
system.cpu04.dtb.read_misses                        0                       # DTB read misses
system.cpu04.dtb.write_accesses                     0                       # DTB write accesses
system.cpu04.dtb.write_hits                         0                       # DTB write hits
system.cpu04.dtb.write_misses                       0                       # DTB write misses
system.cpu04.idle_fraction                   0.983494                       # Percentage of idle cycles
system.cpu04.itb.accesses                           0                       # DTB accesses
system.cpu04.itb.hits                               0                       # DTB hits
system.cpu04.itb.misses                             0                       # DTB misses
system.cpu04.itb.pwrStateResidencyTicks::UNDEFINED    856771000                       # Cumulative time (in ticks) in various power states
system.cpu04.itb.read_accesses                      0                       # DTB read accesses
system.cpu04.itb.read_hits                          0                       # DTB read hits
system.cpu04.itb.read_misses                        0                       # DTB read misses
system.cpu04.itb.write_accesses                     0                       # DTB write accesses
system.cpu04.itb.write_hits                         0                       # DTB write hits
system.cpu04.itb.write_misses                       0                       # DTB write misses
system.cpu04.not_idle_fraction               0.016506                       # Percentage of non-idle cycles
system.cpu04.numCycles                        1713341                       # number of cpu cycles simulated
system.cpu04.numPwrStateTransitions                 2                       # Number of power state transitions
system.cpu04.numWorkItemsCompleted                  0                       # number of work items this cpu completed
system.cpu04.numWorkItemsStarted                    0                       # number of work items this cpu started
system.cpu04.num_busy_cycles             28280.684228                       # Number of busy cycles
system.cpu04.num_conditional_control_insts          101                       # number of instructions that are conditional controls
system.cpu04.num_fp_alu_accesses                   12                       # Number of float alu accesses
system.cpu04.num_fp_insts                          12                       # number of float instructions
system.cpu04.num_fp_register_reads                 12                       # number of times the floating registers were read
system.cpu04.num_fp_register_writes                 0                       # number of times the floating registers were written
system.cpu04.num_func_calls                        96                       # number of times a function call or return occured
system.cpu04.num_idle_cycles             1685060.315772                       # Number of idle cycles
system.cpu04.num_int_alu_accesses                 976                       # Number of integer alu accesses
system.cpu04.num_int_insts                        976                       # number of integer instructions
system.cpu04.num_int_register_reads              1142                       # number of times the integer registers were read
system.cpu04.num_int_register_writes              677                       # number of times the integer registers were written
system.cpu04.num_load_insts                       220                       # Number of load instructions
system.cpu04.num_mem_refs                         387                       # number of memory refs
system.cpu04.num_store_insts                      167                       # Number of store instructions
system.cpu04.num_vec_alu_accesses                   0                       # Number of vector alu accesses
system.cpu04.num_vec_insts                          0                       # number of vector instructions
system.cpu04.num_vec_register_reads                 0                       # number of times the vector registers were read
system.cpu04.num_vec_register_writes                0                       # number of times the vector registers were written
system.cpu04.op_class::No_OpClass                  10      1.00%      1.00% # Class of executed instruction
system.cpu04.op_class::IntAlu                     603     60.12%     61.12% # Class of executed instruction
system.cpu04.op_class::IntMult                      1      0.10%     61.22% # Class of executed instruction
system.cpu04.op_class::IntDiv                       2      0.20%     61.42% # Class of executed instruction
system.cpu04.op_class::FloatAdd                     0      0.00%     61.42% # Class of executed instruction
system.cpu04.op_class::FloatCmp                     0      0.00%     61.42% # Class of executed instruction
system.cpu04.op_class::FloatCvt                     0      0.00%     61.42% # Class of executed instruction
system.cpu04.op_class::FloatMult                    0      0.00%     61.42% # Class of executed instruction
system.cpu04.op_class::FloatMultAcc                 0      0.00%     61.42% # Class of executed instruction
system.cpu04.op_class::FloatDiv                     0      0.00%     61.42% # Class of executed instruction
system.cpu04.op_class::FloatMisc                    0      0.00%     61.42% # Class of executed instruction
system.cpu04.op_class::FloatSqrt                    0      0.00%     61.42% # Class of executed instruction
system.cpu04.op_class::SimdAdd                      0      0.00%     61.42% # Class of executed instruction
system.cpu04.op_class::SimdAddAcc                   0      0.00%     61.42% # Class of executed instruction
system.cpu04.op_class::SimdAlu                      0      0.00%     61.42% # Class of executed instruction
system.cpu04.op_class::SimdCmp                      0      0.00%     61.42% # Class of executed instruction
system.cpu04.op_class::SimdCvt                      0      0.00%     61.42% # Class of executed instruction
system.cpu04.op_class::SimdMisc                     0      0.00%     61.42% # Class of executed instruction
system.cpu04.op_class::SimdMult                     0      0.00%     61.42% # Class of executed instruction
system.cpu04.op_class::SimdMultAcc                  0      0.00%     61.42% # Class of executed instruction
system.cpu04.op_class::SimdShift                    0      0.00%     61.42% # Class of executed instruction
system.cpu04.op_class::SimdShiftAcc                 0      0.00%     61.42% # Class of executed instruction
system.cpu04.op_class::SimdSqrt                     0      0.00%     61.42% # Class of executed instruction
system.cpu04.op_class::SimdFloatAdd                 0      0.00%     61.42% # Class of executed instruction
system.cpu04.op_class::SimdFloatAlu                 0      0.00%     61.42% # Class of executed instruction
system.cpu04.op_class::SimdFloatCmp                 0      0.00%     61.42% # Class of executed instruction
system.cpu04.op_class::SimdFloatCvt                 0      0.00%     61.42% # Class of executed instruction
system.cpu04.op_class::SimdFloatDiv                 0      0.00%     61.42% # Class of executed instruction
system.cpu04.op_class::SimdFloatMisc                0      0.00%     61.42% # Class of executed instruction
system.cpu04.op_class::SimdFloatMult                0      0.00%     61.42% # Class of executed instruction
system.cpu04.op_class::SimdFloatMultAcc             0      0.00%     61.42% # Class of executed instruction
system.cpu04.op_class::SimdFloatSqrt                0      0.00%     61.42% # Class of executed instruction
system.cpu04.op_class::SimdAes                      0      0.00%     61.42% # Class of executed instruction
system.cpu04.op_class::SimdAesMix                   0      0.00%     61.42% # Class of executed instruction
system.cpu04.op_class::SimdSha1Hash                 0      0.00%     61.42% # Class of executed instruction
system.cpu04.op_class::SimdSha1Hash2                0      0.00%     61.42% # Class of executed instruction
system.cpu04.op_class::SimdSha256Hash               0      0.00%     61.42% # Class of executed instruction
system.cpu04.op_class::SimdSha256Hash2              0      0.00%     61.42% # Class of executed instruction
system.cpu04.op_class::SimdShaSigma2                0      0.00%     61.42% # Class of executed instruction
system.cpu04.op_class::SimdShaSigma3                0      0.00%     61.42% # Class of executed instruction
system.cpu04.op_class::MemRead                    224     22.33%     83.75% # Class of executed instruction
system.cpu04.op_class::MemWrite                   151     15.05%     98.80% # Class of executed instruction
system.cpu04.op_class::FloatMemRead                 0      0.00%     98.80% # Class of executed instruction
system.cpu04.op_class::FloatMemWrite               12      1.20%    100.00% # Class of executed instruction
system.cpu04.op_class::IprAccess                    0      0.00%    100.00% # Class of executed instruction
system.cpu04.op_class::InstPrefetch                 0      0.00%    100.00% # Class of executed instruction
system.cpu04.op_class::total                     1003                       # Class of executed instruction
system.cpu04.pwrStateClkGateDist::samples            1                       # Distribution of time spent in the clock gated state
system.cpu04.pwrStateClkGateDist::mean      143300500                       # Distribution of time spent in the clock gated state
system.cpu04.pwrStateClkGateDist::1000-5e+10            1    100.00%    100.00% # Distribution of time spent in the clock gated state
system.cpu04.pwrStateClkGateDist::min_value    143300500                       # Distribution of time spent in the clock gated state
system.cpu04.pwrStateClkGateDist::max_value    143300500                       # Distribution of time spent in the clock gated state
system.cpu04.pwrStateClkGateDist::total             1                       # Distribution of time spent in the clock gated state
system.cpu04.pwrStateResidencyTicks::ON     713470500                       # Cumulative time (in ticks) in various power states
system.cpu04.pwrStateResidencyTicks::CLK_GATED    143300500                       # Cumulative time (in ticks) in various power states
system.cpu05.Branches                             212                       # Number of branches fetched
system.cpu05.committedInsts                      1084                       # Number of instructions committed
system.cpu05.committedOps                        1090                       # Number of ops (including micro ops) committed
system.cpu05.dtb.accesses                           0                       # DTB accesses
system.cpu05.dtb.hits                               0                       # DTB hits
system.cpu05.dtb.misses                             0                       # DTB misses
system.cpu05.dtb.pwrStateResidencyTicks::UNDEFINED    856771000                       # Cumulative time (in ticks) in various power states
system.cpu05.dtb.read_accesses                      0                       # DTB read accesses
system.cpu05.dtb.read_hits                          0                       # DTB read hits
system.cpu05.dtb.read_misses                        0                       # DTB read misses
system.cpu05.dtb.write_accesses                     0                       # DTB write accesses
system.cpu05.dtb.write_hits                         0                       # DTB write hits
system.cpu05.dtb.write_misses                       0                       # DTB write misses
system.cpu05.idle_fraction                   0.983431                       # Percentage of idle cycles
system.cpu05.itb.accesses                           0                       # DTB accesses
system.cpu05.itb.hits                               0                       # DTB hits
system.cpu05.itb.misses                             0                       # DTB misses
system.cpu05.itb.pwrStateResidencyTicks::UNDEFINED    856771000                       # Cumulative time (in ticks) in various power states
system.cpu05.itb.read_accesses                      0                       # DTB read accesses
system.cpu05.itb.read_hits                          0                       # DTB read hits
system.cpu05.itb.read_misses                        0                       # DTB read misses
system.cpu05.itb.write_accesses                     0                       # DTB write accesses
system.cpu05.itb.write_hits                         0                       # DTB write hits
system.cpu05.itb.write_misses                       0                       # DTB write misses
system.cpu05.not_idle_fraction               0.016569                       # Percentage of non-idle cycles
system.cpu05.numCycles                        1713259                       # number of cpu cycles simulated
system.cpu05.numPwrStateTransitions                 2                       # Number of power state transitions
system.cpu05.numWorkItemsCompleted                  0                       # number of work items this cpu completed
system.cpu05.numWorkItemsStarted                    0                       # number of work items this cpu started
system.cpu05.num_busy_cycles             28386.313051                       # Number of busy cycles
system.cpu05.num_conditional_control_insts          111                       # number of instructions that are conditional controls
system.cpu05.num_fp_alu_accesses                   12                       # Number of float alu accesses
system.cpu05.num_fp_insts                          12                       # number of float instructions
system.cpu05.num_fp_register_reads                 12                       # number of times the floating registers were read
system.cpu05.num_fp_register_writes                 0                       # number of times the floating registers were written
system.cpu05.num_func_calls                       101                       # number of times a function call or return occured
system.cpu05.num_idle_cycles             1684872.686949                       # Number of idle cycles
system.cpu05.num_int_alu_accesses                1066                       # Number of integer alu accesses
system.cpu05.num_int_insts                       1066                       # number of integer instructions
system.cpu05.num_int_register_reads              1247                       # number of times the integer registers were read
system.cpu05.num_int_register_writes              745                       # number of times the integer registers were written
system.cpu05.num_load_insts                       245                       # Number of load instructions
system.cpu05.num_mem_refs                         422                       # number of memory refs
system.cpu05.num_store_insts                      177                       # Number of store instructions
system.cpu05.num_vec_alu_accesses                   0                       # Number of vector alu accesses
system.cpu05.num_vec_insts                          0                       # number of vector instructions
system.cpu05.num_vec_register_reads                 0                       # number of times the vector registers were read
system.cpu05.num_vec_register_writes                0                       # number of times the vector registers were written
system.cpu05.op_class::No_OpClass                  10      0.92%      0.92% # Class of executed instruction
system.cpu05.op_class::IntAlu                     657     60.16%     61.08% # Class of executed instruction
system.cpu05.op_class::IntMult                      1      0.09%     61.17% # Class of executed instruction
system.cpu05.op_class::IntDiv                       2      0.18%     61.36% # Class of executed instruction
system.cpu05.op_class::FloatAdd                     0      0.00%     61.36% # Class of executed instruction
system.cpu05.op_class::FloatCmp                     0      0.00%     61.36% # Class of executed instruction
system.cpu05.op_class::FloatCvt                     0      0.00%     61.36% # Class of executed instruction
system.cpu05.op_class::FloatMult                    0      0.00%     61.36% # Class of executed instruction
system.cpu05.op_class::FloatMultAcc                 0      0.00%     61.36% # Class of executed instruction
system.cpu05.op_class::FloatDiv                     0      0.00%     61.36% # Class of executed instruction
system.cpu05.op_class::FloatMisc                    0      0.00%     61.36% # Class of executed instruction
system.cpu05.op_class::FloatSqrt                    0      0.00%     61.36% # Class of executed instruction
system.cpu05.op_class::SimdAdd                      0      0.00%     61.36% # Class of executed instruction
system.cpu05.op_class::SimdAddAcc                   0      0.00%     61.36% # Class of executed instruction
system.cpu05.op_class::SimdAlu                      0      0.00%     61.36% # Class of executed instruction
system.cpu05.op_class::SimdCmp                      0      0.00%     61.36% # Class of executed instruction
system.cpu05.op_class::SimdCvt                      0      0.00%     61.36% # Class of executed instruction
system.cpu05.op_class::SimdMisc                     0      0.00%     61.36% # Class of executed instruction
system.cpu05.op_class::SimdMult                     0      0.00%     61.36% # Class of executed instruction
system.cpu05.op_class::SimdMultAcc                  0      0.00%     61.36% # Class of executed instruction
system.cpu05.op_class::SimdShift                    0      0.00%     61.36% # Class of executed instruction
system.cpu05.op_class::SimdShiftAcc                 0      0.00%     61.36% # Class of executed instruction
system.cpu05.op_class::SimdSqrt                     0      0.00%     61.36% # Class of executed instruction
system.cpu05.op_class::SimdFloatAdd                 0      0.00%     61.36% # Class of executed instruction
system.cpu05.op_class::SimdFloatAlu                 0      0.00%     61.36% # Class of executed instruction
system.cpu05.op_class::SimdFloatCmp                 0      0.00%     61.36% # Class of executed instruction
system.cpu05.op_class::SimdFloatCvt                 0      0.00%     61.36% # Class of executed instruction
system.cpu05.op_class::SimdFloatDiv                 0      0.00%     61.36% # Class of executed instruction
system.cpu05.op_class::SimdFloatMisc                0      0.00%     61.36% # Class of executed instruction
system.cpu05.op_class::SimdFloatMult                0      0.00%     61.36% # Class of executed instruction
system.cpu05.op_class::SimdFloatMultAcc             0      0.00%     61.36% # Class of executed instruction
system.cpu05.op_class::SimdFloatSqrt                0      0.00%     61.36% # Class of executed instruction
system.cpu05.op_class::SimdAes                      0      0.00%     61.36% # Class of executed instruction
system.cpu05.op_class::SimdAesMix                   0      0.00%     61.36% # Class of executed instruction
system.cpu05.op_class::SimdSha1Hash                 0      0.00%     61.36% # Class of executed instruction
system.cpu05.op_class::SimdSha1Hash2                0      0.00%     61.36% # Class of executed instruction
system.cpu05.op_class::SimdSha256Hash               0      0.00%     61.36% # Class of executed instruction
system.cpu05.op_class::SimdSha256Hash2              0      0.00%     61.36% # Class of executed instruction
system.cpu05.op_class::SimdShaSigma2                0      0.00%     61.36% # Class of executed instruction
system.cpu05.op_class::SimdShaSigma3                0      0.00%     61.36% # Class of executed instruction
system.cpu05.op_class::MemRead                    249     22.80%     84.16% # Class of executed instruction
system.cpu05.op_class::MemWrite                   161     14.74%     98.90% # Class of executed instruction
system.cpu05.op_class::FloatMemRead                 0      0.00%     98.90% # Class of executed instruction
system.cpu05.op_class::FloatMemWrite               12      1.10%    100.00% # Class of executed instruction
system.cpu05.op_class::IprAccess                    0      0.00%    100.00% # Class of executed instruction
system.cpu05.op_class::InstPrefetch                 0      0.00%    100.00% # Class of executed instruction
system.cpu05.op_class::total                     1092                       # Class of executed instruction
system.cpu05.pwrStateClkGateDist::samples            1                       # Distribution of time spent in the clock gated state
system.cpu05.pwrStateClkGateDist::mean      130535000                       # Distribution of time spent in the clock gated state
system.cpu05.pwrStateClkGateDist::1000-5e+10            1    100.00%    100.00% # Distribution of time spent in the clock gated state
system.cpu05.pwrStateClkGateDist::min_value    130535000                       # Distribution of time spent in the clock gated state
system.cpu05.pwrStateClkGateDist::max_value    130535000                       # Distribution of time spent in the clock gated state
system.cpu05.pwrStateClkGateDist::total             1                       # Distribution of time spent in the clock gated state
system.cpu05.pwrStateResidencyTicks::ON     726236000                       # Cumulative time (in ticks) in various power states
system.cpu05.pwrStateResidencyTicks::CLK_GATED    130535000                       # Cumulative time (in ticks) in various power states
system.cpu06.Branches                             208                       # Number of branches fetched
system.cpu06.committedInsts                      1056                       # Number of instructions committed
system.cpu06.committedOps                        1062                       # Number of ops (including micro ops) committed
system.cpu06.dtb.accesses                           0                       # DTB accesses
system.cpu06.dtb.hits                               0                       # DTB hits
system.cpu06.dtb.misses                             0                       # DTB misses
system.cpu06.dtb.pwrStateResidencyTicks::UNDEFINED    856771000                       # Cumulative time (in ticks) in various power states
system.cpu06.dtb.read_accesses                      0                       # DTB read accesses
system.cpu06.dtb.read_hits                          0                       # DTB read hits
system.cpu06.dtb.read_misses                        0                       # DTB read misses
system.cpu06.dtb.write_accesses                     0                       # DTB write accesses
system.cpu06.dtb.write_hits                         0                       # DTB write hits
system.cpu06.dtb.write_misses                       0                       # DTB write misses
system.cpu06.idle_fraction                   0.983713                       # Percentage of idle cycles
system.cpu06.itb.accesses                           0                       # DTB accesses
system.cpu06.itb.hits                               0                       # DTB hits
system.cpu06.itb.misses                             0                       # DTB misses
system.cpu06.itb.pwrStateResidencyTicks::UNDEFINED    856771000                       # Cumulative time (in ticks) in various power states
system.cpu06.itb.read_accesses                      0                       # DTB read accesses
system.cpu06.itb.read_hits                          0                       # DTB read hits
system.cpu06.itb.read_misses                        0                       # DTB read misses
system.cpu06.itb.write_accesses                     0                       # DTB write accesses
system.cpu06.itb.write_hits                         0                       # DTB write hits
system.cpu06.itb.write_misses                       0                       # DTB write misses
system.cpu06.not_idle_fraction               0.016287                       # Percentage of non-idle cycles
system.cpu06.numCycles                        1713391                       # number of cpu cycles simulated
system.cpu06.numPwrStateTransitions                 2                       # Number of power state transitions
system.cpu06.numWorkItemsCompleted                  0                       # number of work items this cpu completed
system.cpu06.numWorkItemsStarted                    0                       # number of work items this cpu started
system.cpu06.num_busy_cycles             27906.542583                       # Number of busy cycles
system.cpu06.num_conditional_control_insts          107                       # number of instructions that are conditional controls
system.cpu06.num_fp_alu_accesses                   12                       # Number of float alu accesses
system.cpu06.num_fp_insts                          12                       # number of float instructions
system.cpu06.num_fp_register_reads                 12                       # number of times the floating registers were read
system.cpu06.num_fp_register_writes                 0                       # number of times the floating registers were written
system.cpu06.num_func_calls                       101                       # number of times a function call or return occured
system.cpu06.num_idle_cycles             1685484.457417                       # Number of idle cycles
system.cpu06.num_int_alu_accesses                1036                       # Number of integer alu accesses
system.cpu06.num_int_insts                       1036                       # number of integer instructions
system.cpu06.num_int_register_reads              1212                       # number of times the integer registers were read
system.cpu06.num_int_register_writes              722                       # number of times the integer registers were written
system.cpu06.num_load_insts                       236                       # Number of load instructions
system.cpu06.num_mem_refs                         410                       # number of memory refs
system.cpu06.num_store_insts                      174                       # Number of store instructions
system.cpu06.num_vec_alu_accesses                   0                       # Number of vector alu accesses
system.cpu06.num_vec_insts                          0                       # number of vector instructions
system.cpu06.num_vec_register_reads                 0                       # number of times the vector registers were read
system.cpu06.num_vec_register_writes                0                       # number of times the vector registers were written
system.cpu06.op_class::No_OpClass                  10      0.94%      0.94% # Class of executed instruction
system.cpu06.op_class::IntAlu                     641     60.24%     61.18% # Class of executed instruction
system.cpu06.op_class::IntMult                      1      0.09%     61.28% # Class of executed instruction
system.cpu06.op_class::IntDiv                       2      0.19%     61.47% # Class of executed instruction
system.cpu06.op_class::FloatAdd                     0      0.00%     61.47% # Class of executed instruction
system.cpu06.op_class::FloatCmp                     0      0.00%     61.47% # Class of executed instruction
system.cpu06.op_class::FloatCvt                     0      0.00%     61.47% # Class of executed instruction
system.cpu06.op_class::FloatMult                    0      0.00%     61.47% # Class of executed instruction
system.cpu06.op_class::FloatMultAcc                 0      0.00%     61.47% # Class of executed instruction
system.cpu06.op_class::FloatDiv                     0      0.00%     61.47% # Class of executed instruction
system.cpu06.op_class::FloatMisc                    0      0.00%     61.47% # Class of executed instruction
system.cpu06.op_class::FloatSqrt                    0      0.00%     61.47% # Class of executed instruction
system.cpu06.op_class::SimdAdd                      0      0.00%     61.47% # Class of executed instruction
system.cpu06.op_class::SimdAddAcc                   0      0.00%     61.47% # Class of executed instruction
system.cpu06.op_class::SimdAlu                      0      0.00%     61.47% # Class of executed instruction
system.cpu06.op_class::SimdCmp                      0      0.00%     61.47% # Class of executed instruction
system.cpu06.op_class::SimdCvt                      0      0.00%     61.47% # Class of executed instruction
system.cpu06.op_class::SimdMisc                     0      0.00%     61.47% # Class of executed instruction
system.cpu06.op_class::SimdMult                     0      0.00%     61.47% # Class of executed instruction
system.cpu06.op_class::SimdMultAcc                  0      0.00%     61.47% # Class of executed instruction
system.cpu06.op_class::SimdShift                    0      0.00%     61.47% # Class of executed instruction
system.cpu06.op_class::SimdShiftAcc                 0      0.00%     61.47% # Class of executed instruction
system.cpu06.op_class::SimdSqrt                     0      0.00%     61.47% # Class of executed instruction
system.cpu06.op_class::SimdFloatAdd                 0      0.00%     61.47% # Class of executed instruction
system.cpu06.op_class::SimdFloatAlu                 0      0.00%     61.47% # Class of executed instruction
system.cpu06.op_class::SimdFloatCmp                 0      0.00%     61.47% # Class of executed instruction
system.cpu06.op_class::SimdFloatCvt                 0      0.00%     61.47% # Class of executed instruction
system.cpu06.op_class::SimdFloatDiv                 0      0.00%     61.47% # Class of executed instruction
system.cpu06.op_class::SimdFloatMisc                0      0.00%     61.47% # Class of executed instruction
system.cpu06.op_class::SimdFloatMult                0      0.00%     61.47% # Class of executed instruction
system.cpu06.op_class::SimdFloatMultAcc             0      0.00%     61.47% # Class of executed instruction
system.cpu06.op_class::SimdFloatSqrt                0      0.00%     61.47% # Class of executed instruction
system.cpu06.op_class::SimdAes                      0      0.00%     61.47% # Class of executed instruction
system.cpu06.op_class::SimdAesMix                   0      0.00%     61.47% # Class of executed instruction
system.cpu06.op_class::SimdSha1Hash                 0      0.00%     61.47% # Class of executed instruction
system.cpu06.op_class::SimdSha1Hash2                0      0.00%     61.47% # Class of executed instruction
system.cpu06.op_class::SimdSha256Hash               0      0.00%     61.47% # Class of executed instruction
system.cpu06.op_class::SimdSha256Hash2              0      0.00%     61.47% # Class of executed instruction
system.cpu06.op_class::SimdShaSigma2                0      0.00%     61.47% # Class of executed instruction
system.cpu06.op_class::SimdShaSigma3                0      0.00%     61.47% # Class of executed instruction
system.cpu06.op_class::MemRead                    240     22.56%     84.02% # Class of executed instruction
system.cpu06.op_class::MemWrite                   158     14.85%     98.87% # Class of executed instruction
system.cpu06.op_class::FloatMemRead                 0      0.00%     98.87% # Class of executed instruction
system.cpu06.op_class::FloatMemWrite               12      1.13%    100.00% # Class of executed instruction
system.cpu06.op_class::IprAccess                    0      0.00%    100.00% # Class of executed instruction
system.cpu06.op_class::InstPrefetch                 0      0.00%    100.00% # Class of executed instruction
system.cpu06.op_class::total                     1064                       # Class of executed instruction
system.cpu06.pwrStateClkGateDist::samples            1                       # Distribution of time spent in the clock gated state
system.cpu06.pwrStateClkGateDist::mean      118194000                       # Distribution of time spent in the clock gated state
system.cpu06.pwrStateClkGateDist::1000-5e+10            1    100.00%    100.00% # Distribution of time spent in the clock gated state
system.cpu06.pwrStateClkGateDist::min_value    118194000                       # Distribution of time spent in the clock gated state
[...]
system.ruby.network.int_links39.credit_link.pwrStateResidencyTicks::UNDEFINED    856771000                       # Cumulative time (in ticks) in various power states
system.ruby.network.int_links39.network_link.pwrStateResidencyTicks::UNDEFINED    856771000                       # Cumulative time (in ticks) in various power states
system.ruby.network.int_links40.credit_link.pwrStateResidencyTicks::UNDEFINED    856771000                       # Cumulative time (in ticks) in various power states
system.ruby.network.int_links40.network_link.pwrStateResidencyTicks::UNDEFINED    856771000                       # Cumulative time (in ticks) in various power states
system.ruby.network.int_links41.credit_link.pwrStateResidencyTicks::UNDEFINED    856771000                       # Cumulative time (in ticks) in various power states
system.ruby.network.int_links41.network_link.pwrStateResidencyTicks::UNDEFINED    856771000                       # Cumulative time (in ticks) in various power states
system.ruby.network.int_links42.credit_link.pwrStateResidencyTicks::UNDEFINED    856771000                       # Cumulative time (in ticks) in various power states
system.ruby.network.int_links42.network_link.pwrStateResidencyTicks::UNDEFINED    856771000                       # Cumulative time (in ticks) in various power states
system.ruby.network.int_links43.credit_link.pwrStateResidencyTicks::UNDEFINED    856771000                       # Cumulative time (in ticks) in various power states
system.ruby.network.int_links43.network_link.pwrStateResidencyTicks::UNDEFINED    856771000                       # Cumulative time (in ticks) in various power states
system.ruby.network.int_links44.credit_link.pwrStateResidencyTicks::UNDEFINED    856771000                       # Cumulative time (in ticks) in various power states
system.ruby.network.int_links44.network_link.pwrStateResidencyTicks::UNDEFINED    856771000                       # Cumulative time (in ticks) in various power states
system.ruby.network.int_links45.credit_link.pwrStateResidencyTicks::UNDEFINED    856771000                       # Cumulative time (in ticks) in various power states
system.ruby.network.int_links45.network_link.pwrStateResidencyTicks::UNDEFINED    856771000                       # Cumulative time (in ticks) in various power states
system.ruby.network.int_links46.credit_link.pwrStateResidencyTicks::UNDEFINED    856771000                       # Cumulative time (in ticks) in various power states
system.ruby.network.int_links46.network_link.pwrStateResidencyTicks::UNDEFINED    856771000                       # Cumulative time (in ticks) in various power states
system.ruby.network.int_links47.credit_link.pwrStateResidencyTicks::UNDEFINED    856771000                       # Cumulative time (in ticks) in various power states
system.ruby.network.int_links47.network_link.pwrStateResidencyTicks::UNDEFINED    856771000                       # Cumulative time (in ticks) in various power states
system.ruby.network.netifs00.pwrStateResidencyTicks::UNDEFINED    856771000                       # Cumulative time (in ticks) in various power states
system.ruby.network.netifs01.pwrStateResidencyTicks::UNDEFINED    856771000                       # Cumulative time (in ticks) in various power states
system.ruby.network.netifs02.pwrStateResidencyTicks::UNDEFINED    856771000                       # Cumulative time (in ticks) in various power states
system.ruby.network.netifs03.pwrStateResidencyTicks::UNDEFINED    856771000                       # Cumulative time (in ticks) in various power states
system.ruby.network.netifs04.pwrStateResidencyTicks::UNDEFINED    856771000                       # Cumulative time (in ticks) in various power states
system.ruby.network.netifs05.pwrStateResidencyTicks::UNDEFINED    856771000                       # Cumulative time (in ticks) in various power states
system.ruby.network.netifs06.pwrStateResidencyTicks::UNDEFINED    856771000                       # Cumulative time (in ticks) in various power states
system.ruby.network.netifs07.pwrStateResidencyTicks::UNDEFINED    856771000                       # Cumulative time (in ticks) in various power states
system.ruby.network.netifs08.pwrStateResidencyTicks::UNDEFINED    856771000                       # Cumulative time (in ticks) in various power states
system.ruby.network.netifs09.pwrStateResidencyTicks::UNDEFINED    856771000                       # Cumulative time (in ticks) in various power states
system.ruby.network.netifs10.pwrStateResidencyTicks::UNDEFINED    856771000                       # Cumulative time (in ticks) in various power states
system.ruby.network.netifs11.pwrStateResidencyTicks::UNDEFINED    856771000                       # Cumulative time (in ticks) in various power states
system.ruby.network.netifs12.pwrStateResidencyTicks::UNDEFINED    856771000                       # Cumulative time (in ticks) in various power states
system.ruby.network.netifs13.pwrStateResidencyTicks::UNDEFINED    856771000                       # Cumulative time (in ticks) in various power states
system.ruby.network.netifs14.pwrStateResidencyTicks::UNDEFINED    856771000                       # Cumulative time (in ticks) in various power states
system.ruby.network.netifs15.pwrStateResidencyTicks::UNDEFINED    856771000                       # Cumulative time (in ticks) in various power states
system.ruby.network.netifs16.pwrStateResidencyTicks::UNDEFINED    856771000                       # Cumulative time (in ticks) in various power states
system.ruby.network.netifs17.pwrStateResidencyTicks::UNDEFINED    856771000                       # Cumulative time (in ticks) in various power states
system.ruby.network.netifs18.pwrStateResidencyTicks::UNDEFINED    856771000                       # Cumulative time (in ticks) in various power states
system.ruby.network.netifs19.pwrStateResidencyTicks::UNDEFINED    856771000                       # Cumulative time (in ticks) in various power states
system.ruby.network.netifs20.pwrStateResidencyTicks::UNDEFINED    856771000                       # Cumulative time (in ticks) in various power states
system.ruby.network.netifs21.pwrStateResidencyTicks::UNDEFINED    856771000                       # Cumulative time (in ticks) in various power states
system.ruby.network.netifs22.pwrStateResidencyTicks::UNDEFINED    856771000                       # Cumulative time (in ticks) in various power states
system.ruby.network.netifs23.pwrStateResidencyTicks::UNDEFINED    856771000                       # Cumulative time (in ticks) in various power states
system.ruby.network.netifs24.pwrStateResidencyTicks::UNDEFINED    856771000                       # Cumulative time (in ticks) in various power states
system.ruby.network.netifs25.pwrStateResidencyTicks::UNDEFINED    856771000                       # Cumulative time (in ticks) in various power states
system.ruby.network.netifs26.pwrStateResidencyTicks::UNDEFINED    856771000                       # Cumulative time (in ticks) in various power states
system.ruby.network.netifs27.pwrStateResidencyTicks::UNDEFINED    856771000                       # Cumulative time (in ticks) in various power states
system.ruby.network.netifs28.pwrStateResidencyTicks::UNDEFINED    856771000                       # Cumulative time (in ticks) in various power states
system.ruby.network.netifs29.pwrStateResidencyTicks::UNDEFINED    856771000                       # Cumulative time (in ticks) in various power states
system.ruby.network.netifs30.pwrStateResidencyTicks::UNDEFINED    856771000                       # Cumulative time (in ticks) in various power states
system.ruby.network.netifs31.pwrStateResidencyTicks::UNDEFINED    856771000                       # Cumulative time (in ticks) in various power states
system.ruby.network.netifs32.pwrStateResidencyTicks::UNDEFINED    856771000                       # Cumulative time (in ticks) in various power states
system.ruby.network.netifs33.pwrStateResidencyTicks::UNDEFINED    856771000                       # Cumulative time (in ticks) in various power states
system.ruby.network.netifs34.pwrStateResidencyTicks::UNDEFINED    856771000                       # Cumulative time (in ticks) in various power states
system.ruby.network.netifs35.pwrStateResidencyTicks::UNDEFINED    856771000                       # Cumulative time (in ticks) in various power states
system.ruby.network.packet_network_latency |      624142                       |      963323                       |      224320                      
system.ruby.network.packet_queueing_latency |      187788                       |      134916                       |       16917                      
system.ruby.network.packets_injected     |       21761     34.90%     34.90% |       31145     49.95%     84.86% |        9442     15.14%    100.00%
system.ruby.network.packets_injected::total        62348                      
system.ruby.network.packets_received     |       21760     34.91%     34.91% |       31132     49.94%     84.85% |        9441     15.15%    100.00%
system.ruby.network.packets_received::total        62333                      
system.ruby.network.pwrStateResidencyTicks::UNDEFINED    856771000                       # Cumulative time (in ticks) in various power states
system.ruby.network.routers00.buffer_reads       104482                      
system.ruby.network.routers00.buffer_writes       104482                      
system.ruby.network.routers00.crossbar_activity       104481                      
system.ruby.network.routers00.pwrStateResidencyTicks::UNDEFINED    856771000                       # Cumulative time (in ticks) in various power states
system.ruby.network.routers00.sw_input_arbiter_activity       104544                      
system.ruby.network.routers00.sw_output_arbiter_activity       104481                      
system.ruby.network.routers01.buffer_reads        46475                      
system.ruby.network.routers01.buffer_writes        46475                      
system.ruby.network.routers01.crossbar_activity        46475                      
system.ruby.network.routers01.pwrStateResidencyTicks::UNDEFINED    856771000                       # Cumulative time (in ticks) in various power states
system.ruby.network.routers01.sw_input_arbiter_activity        46503                      
system.ruby.network.routers01.sw_output_arbiter_activity        46475                      
system.ruby.network.routers02.buffer_reads        33606                      
system.ruby.network.routers02.buffer_writes        33606                      
system.ruby.network.routers02.crossbar_activity        33606                      
system.ruby.network.routers02.pwrStateResidencyTicks::UNDEFINED    856771000                       # Cumulative time (in ticks) in various power states
system.ruby.network.routers02.sw_input_arbiter_activity        33630                      
system.ruby.network.routers02.sw_output_arbiter_activity        33606                      
system.ruby.network.routers03.buffer_reads        24802                      
system.ruby.network.routers03.buffer_writes        24802                      
system.ruby.network.routers03.crossbar_activity        24802                      
system.ruby.network.routers03.pwrStateResidencyTicks::UNDEFINED    856771000                       # Cumulative time (in ticks) in various power states
system.ruby.network.routers03.sw_input_arbiter_activity        24838                      
system.ruby.network.routers03.sw_output_arbiter_activity        24802                      
system.ruby.network.routers04.buffer_reads        63591                      
system.ruby.network.routers04.buffer_writes        63591                      
system.ruby.network.routers04.crossbar_activity        63590                      
system.ruby.network.routers04.pwrStateResidencyTicks::UNDEFINED    856771000                       # Cumulative time (in ticks) in various power states
system.ruby.network.routers04.sw_input_arbiter_activity        63752                      
system.ruby.network.routers04.sw_output_arbiter_activity        63590                      
system.ruby.network.routers05.buffer_reads        24048                      
system.ruby.network.routers05.buffer_writes        24048                      
system.ruby.network.routers05.crossbar_activity        24048                      
system.ruby.network.routers05.pwrStateResidencyTicks::UNDEFINED    856771000                       # Cumulative time (in ticks) in various power states
system.ruby.network.routers05.sw_input_arbiter_activity        24058                      
system.ruby.network.routers05.sw_output_arbiter_activity        24048                      
system.ruby.network.routers06.buffer_reads        18709                      
system.ruby.network.routers06.buffer_writes        18709                      
system.ruby.network.routers06.crossbar_activity        18709                      
system.ruby.network.routers06.pwrStateResidencyTicks::UNDEFINED    856771000                       # Cumulative time (in ticks) in various power states
system.ruby.network.routers06.sw_input_arbiter_activity        18737                      
system.ruby.network.routers06.sw_output_arbiter_activity        18709                      
system.ruby.network.routers07.buffer_reads        19828                      
system.ruby.network.routers07.buffer_writes        19828                      
system.ruby.network.routers07.crossbar_activity        19828                      
system.ruby.network.routers07.pwrStateResidencyTicks::UNDEFINED    856771000                       # Cumulative time (in ticks) in various power states
system.ruby.network.routers07.sw_input_arbiter_activity        19904                      
system.ruby.network.routers07.sw_output_arbiter_activity        19828                      
system.ruby.network.routers08.buffer_reads        46221                      
system.ruby.network.routers08.buffer_writes        46221                      
system.ruby.network.routers08.crossbar_activity        46219                      
system.ruby.network.routers08.pwrStateResidencyTicks::UNDEFINED    856771000                       # Cumulative time (in ticks) in various power states
system.ruby.network.routers08.sw_input_arbiter_activity        46510                      
system.ruby.network.routers08.sw_output_arbiter_activity        46219                      
system.ruby.network.routers09.buffer_reads        23331                      
system.ruby.network.routers09.buffer_writes        23331                      
system.ruby.network.routers09.crossbar_activity        23330                      
system.ruby.network.routers09.pwrStateResidencyTicks::UNDEFINED    856771000                       # Cumulative time (in ticks) in various power states
system.ruby.network.routers09.sw_input_arbiter_activity        23346                      
system.ruby.network.routers09.sw_output_arbiter_activity        23330                      
system.ruby.network.routers10.buffer_reads        23865                      
system.ruby.network.routers10.buffer_writes        23865                      
system.ruby.network.routers10.crossbar_activity        23861                      
system.ruby.network.routers10.pwrStateResidencyTicks::UNDEFINED    856771000                       # Cumulative time (in ticks) in various power states
system.ruby.network.routers10.sw_input_arbiter_activity        23899                      
system.ruby.network.routers10.sw_output_arbiter_activity        23861                      
system.ruby.network.routers11.buffer_reads        26214                      
system.ruby.network.routers11.buffer_writes        26214                      
system.ruby.network.routers11.crossbar_activity        26212                      
system.ruby.network.routers11.pwrStateResidencyTicks::UNDEFINED    856771000                       # Cumulative time (in ticks) in various power states
system.ruby.network.routers11.sw_input_arbiter_activity        26454                      
system.ruby.network.routers11.sw_output_arbiter_activity        26212                      
system.ruby.network.routers12.buffer_reads        40230                      
system.ruby.network.routers12.buffer_writes        40230                      
system.ruby.network.routers12.crossbar_activity        40224                      
system.ruby.network.routers12.pwrStateResidencyTicks::UNDEFINED    856771000                       # Cumulative time (in ticks) in various power states
system.ruby.network.routers12.sw_input_arbiter_activity        40536                      
system.ruby.network.routers12.sw_output_arbiter_activity        40224                      
system.ruby.network.routers13.buffer_reads        28518                      
system.ruby.network.routers13.buffer_writes        28518                      
system.ruby.network.routers13.crossbar_activity        28516                      
system.ruby.network.routers13.pwrStateResidencyTicks::UNDEFINED    856771000                       # Cumulative time (in ticks) in various power states
system.ruby.network.routers13.sw_input_arbiter_activity        28573                      
system.ruby.network.routers13.sw_output_arbiter_activity        28516                      
system.ruby.network.routers14.buffer_reads        24060                      
system.ruby.network.routers14.buffer_writes        24060                      
system.ruby.network.routers14.crossbar_activity        24059                      
system.ruby.network.routers14.pwrStateResidencyTicks::UNDEFINED    856771000                       # Cumulative time (in ticks) in various power states
system.ruby.network.routers14.sw_input_arbiter_activity        24111                      
system.ruby.network.routers14.sw_output_arbiter_activity        24059                      
system.ruby.network.routers15.buffer_reads        21936                      
system.ruby.network.routers15.buffer_writes        21936                      
system.ruby.network.routers15.crossbar_activity        21934                      
system.ruby.network.routers15.pwrStateResidencyTicks::UNDEFINED    856771000                       # Cumulative time (in ticks) in various power states
system.ruby.network.routers15.sw_input_arbiter_activity        22046                      
system.ruby.network.routers15.sw_output_arbiter_activity        21934                      
system.ruby.outstanding_req_hist_seqr::bucket_size            1                      
system.ruby.outstanding_req_hist_seqr::max_bucket            9                      
system.ruby.outstanding_req_hist_seqr::samples       181119                      
system.ruby.outstanding_req_hist_seqr::mean            1                      
system.ruby.outstanding_req_hist_seqr::gmean            1                      
system.ruby.outstanding_req_hist_seqr    |           0      0.00%      0.00% |      181119    100.00%    100.00% |           0      0.00%    100.00% |           0      0.00%    100.00% |           0      0.00%    100.00% |           0      0.00%    100.00% |           0      0.00%    100.00% |           0      0.00%    100.00% |           0      0.00%    100.00% |           0      0.00%    100.00%
system.ruby.outstanding_req_hist_seqr::total       181119                      
system.ruby.pwrStateResidencyTicks::UNDEFINED    856771000                       # Cumulative time (in ticks) in various power states
system.sys_port_proxy.pwrStateResidencyTicks::UNDEFINED    856771000                       # Cumulative time (in ticks) in various power states
system.voltage_domain.voltage                       1                       # Voltage in Volts

---------- End Simulation Statistics   ----------
