
---------- Begin Simulation Statistics ----------
final_tick                                  697577500                       # Number of ticks from beginning of simulation (restored from checkpoints and never reset)
host_inst_rate                                  23665                       # Simulator instruction rate (inst/s)
host_mem_usage                                5160424                       # Number of bytes of host memory used
host_op_rate                                    23717                       # Simulator op (including micro ops) rate (op/s)
host_seconds                                     7.15                       # Real time elapsed on the host
host_tick_rate                               97554540                       # Simulator tick rate (ticks/s)
sim_freq                                 1000000000000                       # Frequency of simulated ticks
sim_insts                                      169213                       # Number of instructions simulated
sim_ops                                        169593                       # Number of ops (including micro ops) simulated
sim_seconds                                  0.000698                       # Number of seconds simulated
sim_ticks                                   697577500                       # Number of ticks simulated
system.clk_domain.clock                          1000                       # Clock period in ticks
system.cpu00.Branches                           22346                       # Number of branches fetched
system.cpu00.committedInsts                    100000                       # Number of instructions committed
system.cpu00.committedOps                      100293                       # Number of ops (including micro ops) committed
system.cpu00.dtb.accesses                           0                       # DTB accesses
system.cpu00.dtb.hits                               0                       # DTB hits
system.cpu00.dtb.misses                             0                       # DTB misses
system.cpu00.dtb.pwrStateResidencyTicks::UNDEFINED    697577500                       # Cumulative time (in ticks) in various power states
system.cpu00.dtb.read_accesses                      0                       # DTB read accesses
system.cpu00.dtb.read_hits                          0                       # DTB read hits
system.cpu00.dtb.read_misses                        0                       # DTB read misses
system.cpu00.dtb.write_accesses                     0                       # DTB write accesses
system.cpu00.dtb.write_hits                         0                       # DTB write hits
system.cpu00.dtb.write_misses                       0                       # DTB write misses
system.cpu00.idle_fraction                   0.004784                       # Percentage of idle cycles
system.cpu00.itb.accesses                           0                       # DTB accesses
system.cpu00.itb.hits                               0                       # DTB hits
system.cpu00.itb.misses                             0                       # DTB misses
system.cpu00.itb.pwrStateResidencyTicks::UNDEFINED    697577500                       # Cumulative time (in ticks) in various power states
system.cpu00.itb.read_accesses                      0                       # DTB read accesses
system.cpu00.itb.read_hits                          0                       # DTB read hits
system.cpu00.itb.read_misses                        0                       # DTB read misses
system.cpu00.itb.write_accesses                     0                       # DTB write accesses
system.cpu00.itb.write_hits                         0                       # DTB write hits
system.cpu00.itb.write_misses                       0                       # DTB write misses
system.cpu00.not_idle_fraction               0.995216                       # Percentage of non-idle cycles
system.cpu00.numCycles                        1395155                       # number of cpu cycles simulated
system.cpu00.numPwrStateTransitions                 2                       # Number of power state transitions
system.cpu00.numWorkItemsCompleted                  0                       # number of work items this cpu completed
system.cpu00.numWorkItemsStarted                    0                       # number of work items this cpu started
system.cpu00.num_busy_cycles             1388481.000010                       # Number of busy cycles
system.cpu00.num_conditional_control_insts        15927                       # number of instructions that are conditional controls
system.cpu00.num_fp_alu_accesses                   12                       # Number of float alu accesses
system.cpu00.num_fp_insts                          12                       # number of float instructions
system.cpu00.num_fp_register_reads                 12                       # number of times the floating registers were read
system.cpu00.num_fp_register_writes                 0                       # number of times the floating registers were written
system.cpu00.num_func_calls                      6419                       # number of times a function call or return occured
system.cpu00.num_idle_cycles              6673.999990                       # Number of idle cycles
system.cpu00.num_int_alu_accesses               98835                       # Number of integer alu accesses
system.cpu00.num_int_insts                      98835                       # number of integer instructions
system.cpu00.num_int_register_reads            120833                       # number of times the integer registers were read
system.cpu00.num_int_register_writes            64476                       # number of times the integer registers were written
system.cpu00.num_load_insts                     20287                       # Number of load instructions
system.cpu00.num_mem_refs                       36552                       # number of memory refs
system.cpu00.num_store_insts                    16265                       # Number of store instructions
system.cpu00.num_vec_alu_accesses                   0                       # Number of vector alu accesses
system.cpu00.num_vec_insts                          0                       # number of vector instructions
system.cpu00.num_vec_register_reads                 0                       # number of times the vector registers were read
system.cpu00.num_vec_register_writes                0                       # number of times the vector registers were written
system.cpu00.op_class::No_OpClass                 859      0.86%      0.86% # Class of executed instruction
system.cpu00.op_class::IntAlu                   62918     62.69%     63.55% # Class of executed instruction
system.cpu00.op_class::IntMult                     30      0.03%     63.57% # Class of executed instruction
system.cpu00.op_class::IntDiv                       6      0.01%     63.58% # Class of executed instruction
system.cpu00.op_class::FloatAdd                     0      0.00%     63.58% # Class of executed instruction
system.cpu00.op_class::FloatCmp                     0      0.00%     63.58% # Class of executed instruction
system.cpu00.op_class::FloatCvt                     0      0.00%     63.58% # Class of executed instruction
system.cpu00.op_class::FloatMult                    0      0.00%     63.58% # Class of executed instruction
system.cpu00.op_class::FloatMultAcc                 0      0.00%     63.58% # Class of executed instruction
system.cpu00.op_class::FloatDiv                     0      0.00%     63.58% # Class of executed instruction
system.cpu00.op_class::FloatMisc                    0      0.00%     63.58% # Class of executed instruction
system.cpu00.op_class::FloatSqrt                    0      0.00%     63.58% # Class of executed instruction
system.cpu00.op_class::SimdAdd                      0      0.00%     63.58% # Class of executed instruction
system.cpu00.op_class::SimdAddAcc                   0      0.00%     63.58% # Class of executed instruction
system.cpu00.op_class::SimdAlu                      0      0.00%     63.58% # Class of executed instruction
system.cpu00.op_class::SimdCmp                      0      0.00%     63.58% # Class of executed instruction
system.cpu00.op_class::SimdCvt                      0      0.00%     63.58% # Class of executed instruction
system.cpu00.op_class::SimdMisc                     0      0.00%     63.58% # Class of executed instruction
system.cpu00.op_class::SimdMult                     0      0.00%     63.58% # Class of executed instruction
system.cpu00.op_class::SimdMultAcc                  0      0.00%     63.58% # Class of executed instruction
system.cpu00.op_class::SimdShift                    0      0.00%     63.58% # Class of executed instruction
system.cpu00.op_class::SimdShiftAcc                 0      0.00%     63.58% # Class of executed instruction
system.cpu00.op_class::SimdSqrt                     0      0.00%     63.58% # Class of executed instruction
system.cpu00.op_class::SimdFloatAdd                 0      0.00%     63.58% # Class of executed instruction
system.cpu00.op_class::SimdFloatAlu                 0      0.00%     63.58% # Class of executed instruction
system.cpu00.op_class::SimdFloatCmp                 0      0.00%     63.58% # Class of executed instruction
system.cpu00.op_class::SimdFloatCvt                 0      0.00%     63.58% # Class of executed instruction
system.cpu00.op_class::SimdFloatDiv                 0      0.00%     63.58% # Class of executed instruction
system.cpu00.op_class::SimdFloatMisc                0      0.00%     63.58% # Class of executed instruction
system.cpu00.op_class::SimdFloatMult                0      0.00%     63.58% # Class of executed instruction
system.cpu00.op_class::SimdFloatMultAcc             0      0.00%     63.58% # Class of executed instruction
system.cpu00.op_class::SimdFloatSqrt                0      0.00%     63.58% # Class of executed instruction
system.cpu00.op_class::SimdAes                      0      0.00%     63.58% # Class of executed instruction
system.cpu00.op_class::SimdAesMix                   0      0.00%     63.58% # Class of executed instruction
system.cpu00.op_class::SimdSha1Hash                 0      0.00%     63.58% # Class of executed instruction
system.cpu00.op_class::SimdSha1Hash2                0      0.00%     63.58% # Class of executed instruction
system.cpu00.op_class::SimdSha256Hash               0      0.00%     63.58% # Class of executed instruction
system.cpu00.op_class::SimdSha256Hash2              0      0.00%     63.58% # Class of executed instruction
system.cpu00.op_class::SimdShaSigma2                0      0.00%     63.58% # Class of executed instruction
system.cpu00.op_class::SimdShaSigma3                0      0.00%     63.58% # Class of executed instruction
system.cpu00.op_class::MemRead                  20572     20.50%     84.08% # Class of executed instruction
system.cpu00.op_class::MemWrite                 15968     15.91%     99.99% # Class of executed instruction
system.cpu00.op_class::FloatMemRead                 0      0.00%     99.99% # Class of executed instruction
system.cpu00.op_class::FloatMemWrite               12      0.01%    100.00% # Class of executed instruction
system.cpu00.op_class::IprAccess                    0      0.00%    100.00% # Class of executed instruction
system.cpu00.op_class::InstPrefetch                 0      0.00%    100.00% # Class of executed instruction
system.cpu00.op_class::total                   100365                       # Class of executed instruction
system.cpu00.pwrStateClkGateDist::samples            1                       # Distribution of time spent in the clock gated state
system.cpu00.pwrStateClkGateDist::mean        3337000                       # Distribution of time spent in the clock gated state
system.cpu00.pwrStateClkGateDist::1000-5e+10            1    100.00%    100.00% # Distribution of time spent in the clock gated state
system.cpu00.pwrStateClkGateDist::min_value      3337000                       # Distribution of time spent in the clock gated state
system.cpu00.pwrStateClkGateDist::max_value      3337000                       # Distribution of time spent in the clock gated state
system.cpu00.pwrStateClkGateDist::total             1                       # Distribution of time spent in the clock gated state
system.cpu00.pwrStateResidencyTicks::ON     694240500                       # Cumulative time (in ticks) in various power states
system.cpu00.pwrStateResidencyTicks::CLK_GATED      3337000                       # Cumulative time (in ticks) in various power states
system.cpu00.workload.numSyscalls                  71                       # Number of system calls
system.cpu01.Branches                             892                       # Number of branches fetched
system.cpu01.committedInsts                      4754                       # Number of instructions committed
system.cpu01.committedOps                        4760                       # Number of ops (including micro ops) committed
system.cpu01.dtb.accesses                           0                       # DTB accesses
system.cpu01.dtb.hits                               0                       # DTB hits
system.cpu01.dtb.misses                             0                       # DTB misses
system.cpu01.dtb.pwrStateResidencyTicks::UNDEFINED    697577500                       # Cumulative time (in ticks) in various power states
system.cpu01.dtb.read_accesses                      0                       # DTB read accesses
system.cpu01.dtb.read_hits                          0                       # DTB read hits
system.cpu01.dtb.read_misses                        0                       # DTB read misses
system.cpu01.dtb.write_accesses                     0                       # DTB write accesses
system.cpu01.dtb.write_hits                         0                       # DTB write hits
system.cpu01.dtb.write_misses                       0                       # DTB write misses
system.cpu01.idle_fraction                   0.979693                       # Percentage of idle cycles
system.cpu01.itb.accesses                           0                       # DTB accesses
system.cpu01.itb.hits                               0                       # DTB hits
system.cpu01.itb.misses                             0                       # DTB misses
system.cpu01.itb.pwrStateResidencyTicks::UNDEFINED    697577500                       # Cumulative time (in ticks) in various power states
system.cpu01.itb.read_accesses                      0                       # DTB read accesses
system.cpu01.itb.read_hits                          0                       # DTB read hits
system.cpu01.itb.read_misses                        0                       # DTB read misses
system.cpu01.itb.write_accesses                     0                       # DTB write accesses
system.cpu01.itb.write_hits                         0                       # DTB write hits
system.cpu01.itb.write_misses                       0                       # DTB write misses
system.cpu01.not_idle_fraction               0.020307                       # Percentage of non-idle cycles
system.cpu01.numCycles                        1395154                       # number of cpu cycles simulated
system.cpu01.numPwrStateTransitions                 2                       # Number of power state transitions
system.cpu01.numWorkItemsCompleted                  0                       # number of work items this cpu completed
system.cpu01.numWorkItemsStarted                    0                       # number of work items this cpu started
system.cpu01.num_busy_cycles             28330.981653                       # Number of busy cycles
system.cpu01.num_conditional_control_insts          467                       # number of instructions that are conditional controls
system.cpu01.num_fp_alu_accesses                   12                       # Number of float alu accesses
system.cpu01.num_fp_insts                          12                       # number of float instructions
system.cpu01.num_fp_register_reads                 12                       # number of times the floating registers were read
system.cpu01.num_fp_register_writes                 0                       # number of times the floating registers were written
system.cpu01.num_func_calls                       425                       # number of times a function call or return occured
system.cpu01.num_idle_cycles             1366823.018347                       # Number of idle cycles
system.cpu01.num_int_alu_accesses                4678                       # Number of integer alu accesses
system.cpu01.num_int_insts                       4678                       # number of integer instructions
system.cpu01.num_int_register_reads              5389                       # number of times the integer registers were read
system.cpu01.num_int_register_writes             3468                       # number of times the integer registers were written
system.cpu01.num_load_insts                      1161                       # Number of load instructions
system.cpu01.num_mem_refs                        1723                       # number of memory refs
system.cpu01.num_store_insts                      562                       # Number of store instructions
system.cpu01.num_vec_alu_accesses                   0                       # Number of vector alu accesses
system.cpu01.num_vec_insts                          0                       # number of vector instructions
system.cpu01.num_vec_register_reads                 0                       # number of times the vector registers were read
system.cpu01.num_vec_register_writes                0                       # number of times the vector registers were written
system.cpu01.op_class::No_OpClass                  10      0.21%      0.21% # Class of executed instruction
system.cpu01.op_class::IntAlu                    3026     63.54%     63.75% # Class of executed instruction
system.cpu01.op_class::IntMult                      1      0.02%     63.78% # Class of executed instruction
system.cpu01.op_class::IntDiv                       2      0.04%     63.82% # Class of executed instruction
system.cpu01.op_class::FloatAdd                     0      0.00%     63.82% # Class of executed instruction
system.cpu01.op_class::FloatCmp                     0      0.00%     63.82% # Class of executed instruction
system.cpu01.op_class::FloatCvt                     0      0.00%     63.82% # Class of executed instruction
system.cpu01.op_class::FloatMult                    0      0.00%     63.82% # Class of executed instruction
system.cpu01.op_class::FloatMultAcc                 0      0.00%     63.82% # Class of executed instruction
system.cpu01.op_class::FloatDiv                     0      0.00%     63.82% # Class of executed instruction
system.cpu01.op_class::FloatMisc                    0      0.00%     63.82% # Class of executed instruction
system.cpu01.op_class::FloatSqrt                    0      0.00%     63.82% # Class of executed instruction
system.cpu01.op_class::SimdAdd                      0      0.00%     63.82% # Class of executed instruction
system.cpu01.op_class::SimdAddAcc                   0      0.00%     63.82% # Class of executed instruction
system.cpu01.op_class::SimdAlu                      0      0.00%     63.82% # Class of executed instruction
system.cpu01.op_class::SimdCmp                      0      0.00%     63.82% # Class of executed instruction
system.cpu01.op_class::SimdCvt                      0      0.00%     63.82% # Class of executed instruction
system.cpu01.op_class::SimdMisc                     0      0.00%     63.82% # Class of executed instruction
system.cpu01.op_class::SimdMult                     0      0.00%     63.82% # Class of executed instruction
system.cpu01.op_class::SimdMultAcc                  0      0.00%     63.82% # Class of executed instruction
system.cpu01.op_class::SimdShift                    0      0.00%     63.82% # Class of executed instruction
system.cpu01.op_class::SimdShiftAcc                 0      0.00%     63.82% # Class of executed instruction
system.cpu01.op_class::SimdSqrt                     0      0.00%     63.82% # Class of executed instruction
system.cpu01.op_class::SimdFloatAdd                 0      0.00%     63.82% # Class of executed instruction
system.cpu01.op_class::SimdFloatAlu                 0      0.00%     63.82% # Class of executed instruction
system.cpu01.op_class::SimdFloatCmp                 0      0.00%     63.82% # Class of executed instruction
system.cpu01.op_class::SimdFloatCvt                 0      0.00%     63.82% # Class of executed instruction
system.cpu01.op_class::SimdFloatDiv                 0      0.00%     63.82% # Class of executed instruction
system.cpu01.op_class::SimdFloatMisc                0      0.00%     63.82% # Class of executed instruction
system.cpu01.op_class::SimdFloatMult                0      0.00%     63.82% # Class of executed instruction
system.cpu01.op_class::SimdFloatMultAcc             0      0.00%     63.82% # Class of executed instruction
system.cpu01.op_class::SimdFloatSqrt                0      0.00%     63.82% # Class of executed instruction
system.cpu01.op_class::SimdAes                      0      0.00%     63.82% # Class of executed instruction
system.cpu01.op_class::SimdAesMix                   0      0.00%     63.82% # Class of executed instruction
system.cpu01.op_class::SimdSha1Hash                 0      0.00%     63.82% # Class of executed instruction
system.cpu01.op_class::SimdSha1Hash2                0      0.00%     63.82% # Class of executed instruction
system.cpu01.op_class::SimdSha256Hash               0      0.00%     63.82% # Class of executed instruction
system.cpu01.op_class::SimdSha256Hash2              0      0.00%     63.82% # Class of executed instruction
system.cpu01.op_class::SimdShaSigma2                0      0.00%     63.82% # Class of executed instruction
system.cpu01.op_class::SimdShaSigma3                0      0.00%     63.82% # Class of executed instruction
system.cpu01.op_class::MemRead                   1165     24.46%     88.28% # Class of executed instruction
system.cpu01.op_class::MemWrite                   546     11.47%     99.75% # Class of executed instruction
system.cpu01.op_class::FloatMemRead                 0      0.00%     99.75% # Class of executed instruction
system.cpu01.op_class::FloatMemWrite               12      0.25%    100.00% # Class of executed instruction
system.cpu01.op_class::IprAccess                    0      0.00%    100.00% # Class of executed instruction
system.cpu01.op_class::InstPrefetch                 0      0.00%    100.00% # Class of executed instruction
system.cpu01.op_class::total                     4762                       # Class of executed instruction
system.cpu01.pwrStateClkGateDist::samples            1                       # Distribution of time spent in the clock gated state
system.cpu01.pwrStateClkGateDist::mean      143603500                       # Distribution of time spent in the clock gated state
system.cpu01.pwrStateClkGateDist::1000-5e+10            1    100.00%    100.00% # Distribution of time spent in the clock gated state
system.cpu01.pwrStateClkGateDist::min_value    143603500                       # Distribution of time spent in the clock gated state
system.cpu01.pwrStateClkGateDist::max_value    143603500                       # Distribution of time spent in the clock gated state
system.cpu01.pwrStateClkGateDist::total             1                       # Distribution of time spent in the clock gated state
system.cpu01.pwrStateResidencyTicks::ON     553974000                       # Cumulative time (in ticks) in various power states
system.cpu01.pwrStateResidencyTicks::CLK_GATED    143603500                       # Cumulative time (in ticks) in various power states
system.cpu02.Branches                             902                       # Number of branches fetched
system.cpu02.committedInsts                      4808                       # Number of instructions committed
system.cpu02.committedOps                        4814                       # Number of ops (including micro ops) committed
system.cpu02.dtb.accesses                           0                       # DTB accesses
system.cpu02.dtb.hits                               0                       # DTB hits
system.cpu02.dtb.misses                             0                       # DTB misses
system.cpu02.dtb.pwrStateResidencyTicks::UNDEFINED    697577500                       # Cumulative time (in ticks) in various power states
system.cpu02.dtb.read_accesses                      0                       # DTB read accesses
system.cpu02.dtb.read_hits                          0                       # DTB read hits
system.cpu02.dtb.read_misses                        0                       # DTB read misses
system.cpu02.dtb.write_accesses                     0                       # DTB write accesses
system.cpu02.dtb.write_hits                         0                       # DTB write hits
system.cpu02.dtb.write_misses                       0                       # DTB write misses
system.cpu02.idle_fraction                   0.982394                       # Percentage of idle cycles
system.cpu02.itb.accesses                           0                       # DTB accesses
system.cpu02.itb.hits                               0                       # DTB hits
system.cpu02.itb.misses                             0                       # DTB misses
system.cpu02.itb.pwrStateResidencyTicks::UNDEFINED    697577500                       # Cumulative time (in ticks) in various power states
system.cpu02.itb.read_accesses                      0                       # DTB read accesses
system.cpu02.itb.read_hits                          0                       # DTB read hits
system.cpu02.itb.read_misses                        0                       # DTB read misses
system.cpu02.itb.write_accesses                     0                       # DTB write accesses
system.cpu02.itb.write_hits                         0                       # DTB write hits
system.cpu02.itb.write_misses                       0                       # DTB write misses
system.cpu02.not_idle_fraction               0.017606                       # Percentage of non-idle cycles
system.cpu02.numCycles                        1395155                       # number of cpu cycles simulated
system.cpu02.numPwrStateTransitions                 2                       # Number of power state transitions
system.cpu02.numWorkItemsCompleted                  0                       # number of work items this cpu completed
system.cpu02.numWorkItemsStarted                    0                       # number of work items this cpu started
system.cpu02.num_busy_cycles             24563.001965                       # Number of busy cycles
system.cpu02.num_conditional_control_insts          471                       # number of instructions that are conditional controls
system.cpu02.num_fp_alu_accesses                   12                       # Number of float alu accesses
system.cpu02.num_fp_insts                          12                       # number of float instructions
system.cpu02.num_fp_register_reads                 12                       # number of times the floating registers were read
system.cpu02.num_fp_register_writes                 0                       # number of times the floating registers were written
system.cpu02.num_func_calls                       431                       # number of times a function call or return occured
system.cpu02.num_idle_cycles             1370591.998035                       # Number of idle cycles
system.cpu02.num_int_alu_accesses                4730                       # Number of integer alu accesses
system.cpu02.num_int_insts                       4730                       # number of integer instructions
system.cpu02.num_int_register_reads              5451                       # number of times the integer registers were read
system.cpu02.num_int_register_writes             3507                       # number of times the integer registers were written
system.cpu02.num_load_insts                      1175                       # Number of load instructions
system.cpu02.num_mem_refs                        1744                       # number of memory refs
system.cpu02.num_store_insts                      569                       # Number of store instructions
system.cpu02.num_vec_alu_accesses                   0                       # Number of vector alu accesses
system.cpu02.num_vec_insts                          0                       # number of vector instructions
system.cpu02.num_vec_register_reads                 0                       # number of times the vector registers were read
system.cpu02.num_vec_register_writes                0                       # number of times the vector registers were written
system.cpu02.op_class::No_OpClass                  10      0.21%      0.21% # Class of executed instruction
system.cpu02.op_class::IntAlu                    3059     63.52%     63.73% # Class of executed instruction
system.cpu02.op_class::IntMult                      1      0.02%     63.75% # Class of executed instruction
system.cpu02.op_class::IntDiv                       2      0.04%     63.79% # Class of executed instruction
system.cpu02.op_class::FloatAdd                     0      0.00%     63.79% # Class of executed instruction
system.cpu02.op_class::FloatCmp                     0      0.00%     63.79% # Class of executed instruction
system.cpu02.op_class::FloatCvt                     0      0.00%     63.79% # Class of executed instruction
system.cpu02.op_class::FloatMult                    0      0.00%     63.79% # Class of executed instruction
system.cpu02.op_class::FloatMultAcc                 0      0.00%     63.79% # Class of executed instruction
system.cpu02.op_class::FloatDiv                     0      0.00%     63.79% # Class of executed instruction
system.cpu02.op_class::FloatMisc                    0      0.00%     63.79% # Class of executed instruction
system.cpu02.op_class::FloatSqrt                    0      0.00%     63.79% # Class of executed instruction
system.cpu02.op_class::SimdAdd                      0      0.00%     63.79% # Class of executed instruction
system.cpu02.op_class::SimdAddAcc                   0      0.00%     63.79% # Class of executed instruction
system.cpu02.op_class::SimdAlu                      0      0.00%     63.79% # Class of executed instruction
system.cpu02.op_class::SimdCmp                      0      0.00%     63.79% # Class of executed instruction
system.cpu02.op_class::SimdCvt                      0      0.00%     63.79% # Class of executed instruction
system.cpu02.op_class::SimdMisc                     0      0.00%     63.79% # Class of executed instruction
system.cpu02.op_class::SimdMult                     0      0.00%     63.79% # Class of executed instruction
system.cpu02.op_class::SimdMultAcc                  0      0.00%     63.79% # Class of executed instruction
system.cpu02.op_class::SimdShift                    0      0.00%     63.79% # Class of executed instruction
system.cpu02.op_class::SimdShiftAcc                 0      0.00%     63.79% # Class of executed instruction
system.cpu02.op_class::SimdSqrt                     0      0.00%     63.79% # Class of executed instruction
system.cpu02.op_class::SimdFloatAdd                 0      0.00%     63.79% # Class of executed instruction
system.cpu02.op_class::SimdFloatAlu                 0      0.00%     63.79% # Class of executed instruction
system.cpu02.op_class::SimdFloatCmp                 0      0.00%     63.79% # Class of executed instruction
system.cpu02.op_class::SimdFloatCvt                 0      0.00%     63.79% # Class of executed instruction
system.cpu02.op_class::SimdFloatDiv                 0      0.00%     63.79% # Class of executed instruction
system.cpu02.op_class::SimdFloatMisc                0      0.00%     63.79% # Class of executed instruction
system.cpu02.op_class::SimdFloatMult                0      0.00%     63.79% # Class of executed instruction
system.cpu02.op_class::SimdFloatMultAcc             0      0.00%     63.79% # Class of executed instruction
system.cpu02.op_class::SimdFloatSqrt                0      0.00%     63.79% # Class of executed instruction
system.cpu02.op_class::SimdAes                      0      0.00%     63.79% # Class of executed instruction
system.cpu02.op_class::SimdAesMix                   0      0.00%     63.79% # Class of executed instruction
system.cpu02.op_class::SimdSha1Hash                 0      0.00%     63.79% # Class of executed instruction
system.cpu02.op_class::SimdSha1Hash2                0      0.00%     63.79% # Class of executed instruction
system.cpu02.op_class::SimdSha256Hash               0      0.00%     63.79% # Class of executed instruction
system.cpu02.op_class::SimdSha256Hash2              0      0.00%     63.79% # Class of executed instruction
system.cpu02.op_class::SimdShaSigma2                0      0.00%     63.79% # Class of executed instruction
system.cpu02.op_class::SimdShaSigma3                0      0.00%     63.79% # Class of executed instruction
system.cpu02.op_class::MemRead                   1179     24.48%     88.27% # Class of executed instruction
system.cpu02.op_class::MemWrite                   553     11.48%     99.75% # Class of executed instruction
system.cpu02.op_class::FloatMemRead                 0      0.00%     99.75% # Class of executed instruction
system.cpu02.op_class::FloatMemWrite               12      0.25%    100.00% # Class of executed instruction
system.cpu02.op_class::IprAccess                    0      0.00%    100.00% # Class of executed instruction
system.cpu02.op_class::InstPrefetch                 0      0.00%    100.00% # Class of executed instruction
system.cpu02.op_class::total                     4816                       # Class of executed instruction
system.cpu02.pwrStateClkGateDist::samples            1                       # Distribution of time spent in the clock gated state
system.cpu02.pwrStateClkGateDist::mean      135418000                       # Distribution of time spent in the clock gated state
system.cpu02.pwrStateClkGateDist::1000-5e+10            1    100.00%    100.00% # Distribution of time spent in the clock gated state
system.cpu02.pwrStateClkGateDist::min_value    135418000                       # Distribution of time spent in the clock gated state
system.cpu02.pwrStateClkGateDist::max_value    135418000                       # Distribution of time spent in the clock gated state
system.cpu02.pwrStateClkGateDist::total             1                       # Distribution of time spent in the clock gated state
system.cpu02.pwrStateResidencyTicks::ON     562159500                       # Cumulative time (in ticks) in various power states
system.cpu02.pwrStateResidencyTicks::CLK_GATED    135418000                       # Cumulative time (in ticks) in various power states
system.cpu03.Branches                             910                       # Number of branches fetched
system.cpu03.committedInsts                      4812                       # Number of instructions committed
system.cpu03.committedOps                        4818                       # Number of ops (including micro ops) committed
system.cpu03.dtb.accesses                           0                       # DTB accesses
system.cpu03.dtb.hits                               0                       # DTB hits
system.cpu03.dtb.misses                             0                       # DTB misses
system.cpu03.dtb.pwrStateResidencyTicks::UNDEFINED    697577500                       # Cumulative time (in ticks) in various power states
system.cpu03.dtb.read_accesses                      0                       # DTB read accesses
system.cpu03.dtb.read_hits                          0                       # DTB read hits
system.cpu03.dtb.read_misses                        0                       # DTB read misses
system.cpu03.dtb.write_accesses                     0                       # DTB write accesses
system.cpu03.dtb.write_hits                         0                       # DTB write hits
system.cpu03.dtb.write_misses                       0                       # DTB write misses
system.cpu03.idle_fraction                   0.982287                       # Percentage of idle cycles
system.cpu03.itb.accesses                           0                       # DTB accesses
system.cpu03.itb.hits                               0                       # DTB hits
system.cpu03.itb.misses                             0                       # DTB misses
system.cpu03.itb.pwrStateResidencyTicks::UNDEFINED    697577500                       # Cumulative time (in ticks) in various power states
system.cpu03.itb.read_accesses                      0                       # DTB read accesses
system.cpu03.itb.read_hits                          0                       # DTB read hits
system.cpu03.itb.read_misses                        0                       # DTB read misses
system.cpu03.itb.write_accesses                     0                       # DTB write accesses
system.cpu03.itb.write_hits                         0                       # DTB write hits
system.cpu03.itb.write_misses                       0                       # DTB write misses
system.cpu03.not_idle_fraction               0.017713                       # Percentage of non-idle cycles
system.cpu03.numCycles                        1395155                       # number of cpu cycles simulated
system.cpu03.numPwrStateTransitions                 2                       # Number of power state transitions
system.cpu03.numWorkItemsCompleted                  0                       # number of work items this cpu completed
system.cpu03.numWorkItemsStarted                    0                       # number of work items this cpu started
system.cpu03.num_busy_cycles             24713.001965                       # Number of busy cycles
system.cpu03.num_conditional_control_insts          462                       # number of instructions that are conditional controls
system.cpu03.num_fp_alu_accesses                   12                       # Number of float alu accesses
system.cpu03.num_fp_insts                          12                       # number of float instructions
system.cpu03.num_fp_register_reads                 12                       # number of times the floating registers were read
system.cpu03.num_fp_register_writes                 0                       # number of times the floating registers were written
system.cpu03.num_func_calls                       448                       # number of times a function call or return occured
system.cpu03.num_idle_cycles             1370441.998035                       # Number of idle cycles
system.cpu03.num_int_alu_accesses                4718                       # Number of integer alu accesses
system.cpu03.num_int_insts                       4718                       # number of integer instructions
system.cpu03.num_int_register_reads              5443                       # number of times the integer registers were read
system.cpu03.num_int_register_writes             3502                       # number of times the integer registers were written
system.cpu03.num_load_insts                      1177                       # Number of load instructions
system.cpu03.num_mem_refs                        1743                       # number of memory refs
system.cpu03.num_store_insts                      566                       # Number of store instructions
system.cpu03.num_vec_alu_accesses                   0                       # Number of vector alu accesses
system.cpu03.num_vec_insts                          0                       # number of vector instructions
system.cpu03.num_vec_register_reads                 0                       # number of times the vector registers were read
system.cpu03.num_vec_register_writes                0                       # number of times the vector registers were written
system.cpu03.op_class::No_OpClass                  10      0.21%      0.21% # Class of executed instruction
system.cpu03.op_class::IntAlu                    3064     63.57%     63.78% # Class of executed instruction
system.cpu03.op_class::IntMult                      1      0.02%     63.80% # Class of executed instruction
system.cpu03.op_class::IntDiv                       2      0.04%     63.84% # Class of executed instruction
system.cpu03.op_class::FloatAdd                     0      0.00%     63.84% # Class of executed instruction
system.cpu03.op_class::FloatCmp                     0      0.00%     63.84% # Class of executed instruction
system.cpu03.op_class::FloatCvt                     0      0.00%     63.84% # Class of executed instruction
system.cpu03.op_class::FloatMult                    0      0.00%     63.84% # Class of executed instruction
system.cpu03.op_class::FloatMultAcc                 0      0.00%     63.84% # Class of executed instruction
system.cpu03.op_class::FloatDiv                     0      0.00%     63.84% # Class of executed instruction
system.cpu03.op_class::FloatMisc                    0      0.00%     63.84% # Class of executed instruction
system.cpu03.op_class::FloatSqrt                    0      0.00%     63.84% # Class of executed instruction
system.cpu03.op_class::SimdAdd                      0      0.00%     63.84% # Class of executed instruction
system.cpu03.op_class::SimdAddAcc                   0      0.00%     63.84% # Class of executed instruction
system.cpu03.op_class::SimdAlu                      0      0.00%     63.84% # Class of executed instruction
system.cpu03.op_class::SimdCmp                      0      0.00%     63.84% # Class of executed instruction
system.cpu03.op_class::SimdCvt                      0      0.00%     63.84% # Class of executed instruction
system.cpu03.op_class::SimdMisc                     0      0.00%     63.84% # Class of executed instruction
system.cpu03.op_class::SimdMult                     0      0.00%     63.84% # Class of executed instruction
system.cpu03.op_class::SimdMultAcc                  0      0.00%     63.84% # Class of executed instruction
system.cpu03.op_class::SimdShift                    0      0.00%     63.84% # Class of executed instruction
system.cpu03.op_class::SimdShiftAcc                 0      0.00%     63.84% # Class of executed instruction
system.cpu03.op_class::SimdSqrt                     0      0.00%     63.84% # Class of executed instruction
system.cpu03.op_class::SimdFloatAdd                 0      0.00%     63.84% # Class of executed instruction
system.cpu03.op_class::SimdFloatAlu                 0      0.00%     63.84% # Class of executed instruction
system.cpu03.op_class::SimdFloatCmp                 0      0.00%     63.84% # Class of executed instruction
system.cpu03.op_class::SimdFloatCvt                 0      0.00%     63.84% # Class of executed instruction
system.cpu03.op_class::SimdFloatDiv                 0      0.00%     63.84% # Class of executed instruction
system.cpu03.op_class::SimdFloatMisc                0      0.00%     63.84% # Class of executed instruction
system.cpu03.op_class::SimdFloatMult                0      0.00%     63.84% # Class of executed instruction
system.cpu03.op_class::SimdFloatMultAcc             0      0.00%     63.84% # Class of executed instruction
system.cpu03.op_class::SimdFloatSqrt                0      0.00%     63.84% # Class of executed instruction
system.cpu03.op_class::SimdAes                      0      0.00%     63.84% # Class of executed instruction
system.cpu03.op_class::SimdAesMix                   0      0.00%     63.84% # Class of executed instruction
system.cpu03.op_class::SimdSha1Hash                 0      0.00%     63.84% # Class of executed instruction
system.cpu03.op_class::SimdSha1Hash2                0      0.00%     63.84% # Class of executed instruction
system.cpu03.op_class::SimdSha256Hash               0      0.00%     63.84% # Class of executed instruction
system.cpu03.op_class::SimdSha256Hash2              0      0.00%     63.84% # Class of executed instruction
system.cpu03.op_class::SimdShaSigma2                0      0.00%     63.84% # Class of executed instruction
system.cpu03.op_class::SimdShaSigma3                0      0.00%     63.84% # Class of executed instruction
system.cpu03.op_class::MemRead                   1181     24.50%     88.34% # Class of executed instruction
system.cpu03.op_class::MemWrite                   550     11.41%     99.75% # Class of executed instruction
system.cpu03.op_class::FloatMemRead                 0      0.00%     99.75% # Class of executed instruction
system.cpu03.op_class::FloatMemWrite               12      0.25%    100.00% # Class of executed instruction
system.cpu03.op_class::IprAccess                    0      0.00%    100.00% # Class of executed instruction
system.cpu03.op_class::InstPrefetch                 0      0.00%    100.00% # Class of executed instruction
system.cpu03.op_class::total                     4820                       # Class of executed instruction
system.cpu03.pwrStateClkGateDist::samples            1                       # Distribution of time spent in the clock gated state
system.cpu03.pwrStateClkGateDist::mean      125528500                       # Distribution of time spent in the clock gated state
system.cpu03.pwrStateClkGateDist::1000-5e+10            1    100.00%    100.00% # Distribution of time spent in the clock gated state
system.cpu03.pwrStateClkGateDist::min_value    125528500                       # Distribution of time spent in the clock gated state
system.cpu03.pwrStateClkGateDist::max_value    125528500                       # Distribution of time spent in the clock gated state
system.cpu03.pwrStateClkGateDist::total             1                       # Distribution of time spent in the clock gated state
system.cpu03.pwrStateResidencyTicks::ON     572049000                       # Cumulative time (in ticks) in various power states
system.cpu03.pwrStateResidencyTicks::CLK_GATED    125528500                       # Cumulative time (in ticks) in various power states
system.cpu04.Branches                             895                       # Number of branches fetched
system.cpu04.committedInsts                      4725                       # Number of instructions committed
system.cpu04.committedOps                        4731                       # Number of ops (including micro ops) committed
system.cpu04.dtb.accesses                           0                       # DTB accesses
system.cpu04.dtb.hits                               0                       # DTB hits
system.cpu04.dtb.misses                             0                       # DTB misses
system.cpu04.dtb.pwrStateResidencyTicks::UNDEFINED    697577500                       # Cumulative time (in ticks) in various power states
system.cpu04.dtb.read_accesses                      0                       # DTB read accesses
system.cpu04.dtb.read_hits                          0                       # DTB read hits
system.cpu04.dtb.read_misses                        0                       # DTB read misses
system.cpu04.dtb.write_accesses                     0                       # DTB write accesses
system.cpu04.dtb.write_hits                         0                       # DTB write hits
system.cpu04.dtb.write_misses                       0                       # DTB write misses
system.cpu04.idle_fraction                   0.982056                       # Percentage of idle cycles
system.cpu04.itb.accesses                           0                       # DTB accesses
system.cpu04.itb.hits                               0                       # DTB hits
system.cpu04.itb.misses                             0                       # DTB misses
system.cpu04.itb.pwrStateResidencyTicks::UNDEFINED    697577500                       # Cumulative time (in ticks) in various power states
system.cpu04.itb.read_accesses                      0                       # DTB read accesses
system.cpu04.itb.read_hits                          0                       # DTB read hits
system.cpu04.itb.read_misses                        0                       # DTB read misses
system.cpu04.itb.write_accesses                     0                       # DTB write accesses
system.cpu04.itb.write_hits                         0                       # DTB write hits
system.cpu04.itb.write_misses                       0                       # DTB write misses
system.cpu04.not_idle_fraction               0.017944                       # Percentage of non-idle cycles
system.cpu04.numCycles                        1395155                       # number of cpu cycles simulated
system.cpu04.numPwrStateTransitions                 2                       # Number of power state transitions
system.cpu04.numWorkItemsCompleted                  0                       # number of work items this cpu completed
system.cpu04.numWorkItemsStarted                    0                       # number of work items this cpu started
system.cpu04.num_busy_cycles             25034.001964                       # Number of busy cycles
system.cpu04.num_conditional_control_insts          453                       # number of instructions that are conditional controls
system.cpu04.num_fp_alu_accesses                   12                       # Number of float alu accesses
system.cpu04.num_fp_insts                          12                       # number of float instructions
system.cpu04.num_fp_register_reads                 12                       # number of times the floating registers were read
system.cpu04.num_fp_register_writes                 0                       # number of times the floating registers were written
system.cpu04.num_func_calls                       442                       # number of times a function call or return occured
system.cpu04.num_idle_cycles             1370120.998036                       # Number of idle cycles
system.cpu04.num_int_alu_accesses                4631                       # Number of integer alu accesses
system.cpu04.num_int_insts                       4631                       # number of integer instructions
system.cpu04.num_int_register_reads              5343                       # number of times the integer registers were read
system.cpu04.num_int_register_writes             3436                       # number of times the integer registers were written
system.cpu04.num_load_insts                      1154                       # Number of load instructions
system.cpu04.num_mem_refs                        1711                       # number of memory refs
system.cpu04.num_store_insts                      557                       # Number of store instructions
system.cpu04.num_vec_alu_accesses                   0                       # Number of vector alu accesses
system.cpu04.num_vec_insts                          0                       # number of vector instructions
system.cpu04.num_vec_register_reads                 0                       # number of times the vector registers were read
system.cpu04.num_vec_register_writes                0                       # number of times the vector registers were written
system.cpu04.op_class::No_OpClass                  10      0.21%      0.21% # Class of executed instruction
system.cpu04.op_class::IntAlu                    3009     63.57%     63.79% # Class of executed instruction
system.cpu04.op_class::IntMult                      1      0.02%     63.81% # Class of executed instruction
system.cpu04.op_class::IntDiv                       2      0.04%     63.85% # Class of executed instruction
system.cpu04.op_class::FloatAdd                     0      0.00%     63.85% # Class of executed instruction
system.cpu04.op_class::FloatCmp                     0      0.00%     63.85% # Class of executed instruction
system.cpu04.op_class::FloatCvt                     0      0.00%     63.85% # Class of executed instruction
system.cpu04.op_class::FloatMult                    0      0.00%     63.85% # Class of executed instruction
system.cpu04.op_class::FloatMultAcc                 0      0.00%     63.85% # Class of executed instruction
system.cpu04.op_class::FloatDiv                     0      0.00%     63.85% # Class of executed instruction
system.cpu04.op_class::FloatMisc                    0      0.00%     63.85% # Class of executed instruction
system.cpu04.op_class::FloatSqrt                    0      0.00%     63.85% # Class of executed instruction
system.cpu04.op_class::SimdAdd                      0      0.00%     63.85% # Class of executed instruction
system.cpu04.op_class::SimdAddAcc                   0      0.00%     63.85% # Class of executed instruction
system.cpu04.op_class::SimdAlu                      0      0.00%     63.85% # Class of executed instruction
system.cpu04.op_class::SimdCmp                      0      0.00%     63.85% # Class of executed instruction
system.cpu04.op_class::SimdCvt                      0      0.00%     63.85% # Class of executed instruction
system.cpu04.op_class::SimdMisc                     0      0.00%     63.85% # Class of executed instruction
system.cpu04.op_class::SimdMult                     0      0.00%     63.85% # Class of executed instruction
system.cpu04.op_class::SimdMultAcc                  0      0.00%     63.85% # Class of executed instruction
system.cpu04.op_class::SimdShift                    0      0.00%     63.85% # Class of executed instruction
system.cpu04.op_class::SimdShiftAcc                 0      0.00%     63.85% # Class of executed instruction
system.cpu04.op_class::SimdSqrt                     0      0.00%     63.85% # Class of executed instruction
system.cpu04.op_class::SimdFloatAdd                 0      0.00%     63.85% # Class of executed instruction
system.cpu04.op_class::SimdFloatAlu                 0      0.00%     63.85% # Class of executed instruction
system.cpu04.op_class::SimdFloatCmp                 0      0.00%     63.85% # Class of executed instruction
system.cpu04.op_class::SimdFloatCvt                 0      0.00%     63.85% # Class of executed instruction
system.cpu04.op_class::SimdFloatDiv                 0      0.00%     63.85% # Class of executed instruction
system.cpu04.op_class::SimdFloatMisc                0      0.00%     63.85% # Class of executed instruction
system.cpu04.op_class::SimdFloatMult                0      0.00%     63.85% # Class of executed instruction
system.cpu04.op_class::SimdFloatMultAcc             0      0.00%     63.85% # Class of executed instruction
system.cpu04.op_class::SimdFloatSqrt                0      0.00%     63.85% # Class of executed instruction
system.cpu04.op_class::SimdAes                      0      0.00%     63.85% # Class of executed instruction
system.cpu04.op_class::SimdAesMix                   0      0.00%     63.85% # Class of executed instruction
system.cpu04.op_class::SimdSha1Hash                 0      0.00%     63.85% # Class of executed instruction
system.cpu04.op_class::SimdSha1Hash2                0      0.00%     63.85% # Class of executed instruction
system.cpu04.op_class::SimdSha256Hash               0      0.00%     63.85% # Class of executed instruction
system.cpu04.op_class::SimdSha256Hash2              0      0.00%     63.85% # Class of executed instruction
system.cpu04.op_class::SimdShaSigma2                0      0.00%     63.85% # Class of executed instruction
system.cpu04.op_class::SimdShaSigma3                0      0.00%     63.85% # Class of executed instruction
system.cpu04.op_class::MemRead                   1158     24.47%     88.32% # Class of executed instruction
system.cpu04.op_class::MemWrite                   541     11.43%     99.75% # Class of executed instruction
system.cpu04.op_class::FloatMemRead                 0      0.00%     99.75% # Class of executed instruction
system.cpu04.op_class::FloatMemWrite               12      0.25%    100.00% # Class of executed instruction
system.cpu04.op_class::IprAccess                    0      0.00%    100.00% # Class of executed instruction
system.cpu04.op_class::InstPrefetch                 0      0.00%    100.00% # Class of executed instruction
system.cpu04.op_class::total                     4733                       # Class of executed instruction
system.cpu04.pwrStateClkGateDist::samples            1                       # Distribution of time spent in the clock gated state
system.cpu04.pwrStateClkGateDist::mean      113326500                       # Distribution of time spent in the clock gated state
system.cpu04.pwrStateClkGateDist::1000-5e+10            1    100.00%    100.00% # Distribution of time spent in the clock gated state
system.cpu04.pwrStateClkGateDist::min_value    113326500                       # Distribution of time spent in the clock gated state
system.cpu04.pwrStateClkGateDist::max_value    113326500                       # Distribution of time spent in the clock gated state
system.cpu04.pwrStateClkGateDist::total             1                       # Distribution of time spent in the clock gated state
system.cpu04.pwrStateResidencyTicks::ON     584251000                       # Cumulative time (in ticks) in various power states
system.cpu04.pwrStateResidencyTicks::CLK_GATED    113326500                       # Cumulative time (in ticks) in various power states
system.cpu05.Branches                             910                       # Number of branches fetched
system.cpu05.committedInsts                      4815                       # Number of instructions committed
system.cpu05.committedOps                        4821                       # Number of ops (including micro ops) committed
system.cpu05.dtb.accesses                           0                       # DTB accesses
system.cpu05.dtb.hits                               0                       # DTB hits
system.cpu05.dtb.misses                             0                       # DTB misses
system.cpu05.dtb.pwrStateResidencyTicks::UNDEFINED    697577500                       # Cumulative time (in ticks) in various power states
system.cpu05.dtb.read_accesses                      0                       # DTB read accesses
system.cpu05.dtb.read_hits                          0                       # DTB read hits
system.cpu05.dtb.read_misses                        0                       # DTB read misses
system.cpu05.dtb.write_accesses                     0                       # DTB write accesses
system.cpu05.dtb.write_hits                         0                       # DTB write hits
system.cpu05.dtb.write_misses                       0                       # DTB write misses
system.cpu05.idle_fraction                   0.982278                       # Percentage of idle cycles
system.cpu05.itb.accesses                           0                       # DTB accesses
system.cpu05.itb.hits                               0                       # DTB hits
system.cpu05.itb.misses                             0                       # DTB misses
system.cpu05.itb.pwrStateResidencyTicks::UNDEFINED    697577500                       # Cumulative time (in ticks) in various power states
system.cpu05.itb.read_accesses                      0                       # DTB read accesses
system.cpu05.itb.read_hits                          0                       # DTB read hits
system.cpu05.itb.read_misses                        0                       # DTB read misses
system.cpu05.itb.write_accesses                     0                       # DTB write accesses
system.cpu05.itb.write_hits                         0                       # DTB write hits
system.cpu05.itb.write_misses                       0                       # DTB write misses
system.cpu05.not_idle_fraction               0.017722                       # Percentage of non-idle cycles
system.cpu05.numCycles                        1395154                       # number of cpu cycles simulated
system.cpu05.numPwrStateTransitions                 2                       # Number of power state transitions
system.cpu05.numWorkItemsCompleted                  0                       # number of work items this cpu completed
system.cpu05.numWorkItemsStarted                    0                       # number of work items this cpu started
system.cpu05.num_busy_cycles             24724.984243                       # Number of busy cycles
system.cpu05.num_conditional_control_insts          464                       # number of instructions that are conditional controls
system.cpu05.num_fp_alu_accesses                   12                       # Number of float alu accesses
system.cpu05.num_fp_insts                          12                       # number of float instructions
system.cpu05.num_fp_register_reads                 12                       # number of times the floating registers were read
system.cpu05.num_fp_register_writes                 0                       # number of times the floating registers were written
system.cpu05.num_func_calls                       446                       # number of times a function call or return occured
system.cpu05.num_idle_cycles             1370429.015757                       # Number of idle cycles
system.cpu05.num_int_alu_accesses                4724                       # Number of integer alu accesses
system.cpu05.num_int_insts                       4724                       # number of integer instructions
system.cpu05.num_int_register_reads              5445                       # number of times the integer registers were read
system.cpu05.num_int_register_writes             3506                       # number of times the integer registers were written
system.cpu05.num_load_insts                      1175                       # Number of load instructions
system.cpu05.num_mem_refs                        1741                       # number of memory refs
system.cpu05.num_store_insts                      566                       # Number of store instructions
system.cpu05.num_vec_alu_accesses                   0                       # Number of vector alu accesses
system.cpu05.num_vec_insts                          0                       # number of vector instructions
system.cpu05.num_vec_register_reads                 0                       # number of times the vector registers were read
system.cpu05.num_vec_register_writes                0                       # number of times the vector registers were written
system.cpu05.op_class::No_OpClass                  10      0.21%      0.21% # Class of executed instruction
system.cpu05.op_class::IntAlu                    3069     63.63%     63.84% # Class of executed instruction
system.cpu05.op_class::IntMult                      1      0.02%     63.86% # Class of executed instruction
system.cpu05.op_class::IntDiv                       2      0.04%     63.90% # Class of executed instruction
system.cpu05.op_class::FloatAdd                     0      0.00%     63.90% # Class of executed instruction
system.cpu05.op_class::FloatCmp                     0      0.00%     63.90% # Class of executed instruction
system.cpu05.op_class::FloatCvt                     0      0.00%     63.90% # Class of executed instruction
system.cpu05.op_class::FloatMult                    0      0.00%     63.90% # Class of executed instruction
system.cpu05.op_class::FloatMultAcc                 0      0.00%     63.90% # Class of executed instruction
system.cpu05.op_class::FloatDiv                     0      0.00%     63.90% # Class of executed instruction
system.cpu05.op_class::FloatMisc                    0      0.00%     63.90% # Class of executed instruction
system.cpu05.op_class::FloatSqrt                    0      0.00%     63.90% # Class of executed instruction
system.cpu05.op_class::SimdAdd                      0      0.00%     63.90% # Class of executed instruction
system.cpu05.op_class::SimdAddAcc                   0      0.00%     63.90% # Class of executed instruction
system.cpu05.op_class::SimdAlu                      0      0.00%     63.90% # Class of executed instruction
system.cpu05.op_class::SimdCmp                      0      0.00%     63.90% # Class of executed instruction
system.cpu05.op_class::SimdCvt                      0      0.00%     63.90% # Class of executed instruction
system.cpu05.op_class::SimdMisc                     0      0.00%     63.90% # Class of executed instruction
system.cpu05.op_class::SimdMult                     0      0.00%     63.90% # Class of executed instruction
system.cpu05.op_class::SimdMultAcc                  0      0.00%     63.90% # Class of executed instruction
system.cpu05.op_class::SimdShift                    0      0.00%     63.90% # Class of executed instruction
system.cpu05.op_class::SimdShiftAcc                 0      0.00%     63.90% # Class of executed instruction
system.cpu05.op_class::SimdSqrt                     0      0.00%     63.90% # Class of executed instruction
system.cpu05.op_class::SimdFloatAdd                 0      0.00%     63.90% # Class of executed instruction
system.cpu05.op_class::SimdFloatAlu                 0      0.00%     63.90% # Class of executed instruction
system.cpu05.op_class::SimdFloatCmp                 0      0.00%     63.90% # Class of executed instruction
system.cpu05.op_class::SimdFloatCvt                 0      0.00%     63.90% # Class of executed instruction
system.cpu05.op_class::SimdFloatDiv                 0      0.00%     63.90% # Class of executed instruction
system.cpu05.op_class::SimdFloatMisc                0      0.00%     63.90% # Class of executed instruction
system.cpu05.op_class::SimdFloatMult                0      0.00%     63.90% # Class of executed instruction
system.cpu05.op_class::SimdFloatMultAcc             0      0.00%     63.90% # Class of executed instruction
system.cpu05.op_class::SimdFloatSqrt                0      0.00%     63.90% # Class of executed instruction
system.cpu05.op_class::SimdAes                      0      0.00%     63.90% # Class of executed instruction
system.cpu05.op_class::SimdAesMix                   0      0.00%     63.90% # Class of executed instruction
system.cpu05.op_class::SimdSha1Hash                 0      0.00%     63.90% # Class of executed instruction
system.cpu05.op_class::SimdSha1Hash2                0      0.00%     63.90% # Class of executed instruction
system.cpu05.op_class::SimdSha256Hash               0      0.00%     63.90% # Class of executed instruction
system.cpu05.op_class::SimdSha256Hash2              0      0.00%     63.90% # Class of executed instruction
system.cpu05.op_class::SimdShaSigma2                0      0.00%     63.90% # Class of executed instruction
system.cpu05.op_class::SimdShaSigma3                0      0.00%     63.90% # Class of executed instruction
system.cpu05.op_class::MemRead                   1179     24.45%     88.35% # Class of executed instruction
system.cpu05.op_class::MemWrite                   550     11.40%     99.75% # Class of executed instruction
system.cpu05.op_class::FloatMemRead                 0      0.00%     99.75% # Class of executed instruction
system.cpu05.op_class::FloatMemWrite               12      0.25%    100.00% # Class of executed instruction
system.cpu05.op_class::IprAccess                    0      0.00%    100.00% # Class of executed instruction
system.cpu05.op_class::InstPrefetch                 0      0.00%    100.00% # Class of executed instruction
system.cpu05.op_class::total                     4823                       # Class of executed instruction
system.cpu05.pwrStateClkGateDist::samples            1                       # Distribution of time spent in the clock gated state
system.cpu05.pwrStateClkGateDist::mean      103863500                       # Distribution of time spent in the clock gated state
system.cpu05.pwrStateClkGateDist::1000-5e+10            1    100.00%    100.00% # Distribution of time spent in the clock gated state
system.cpu05.pwrStateClkGateDist::min_value    103863500                       # Distribution of time spent in the clock gated state
system.cpu05.pwrStateClkGateDist::max_value    103863500                       # Distribution of time spent in the clock gated state
system.cpu05.pwrStateClkGateDist::total             1                       # Distribution of time spent in the clock gated state
system.cpu05.pwrStateResidencyTicks::ON     593714000                       # Cumulative time (in ticks) in various power states
system.cpu05.pwrStateResidencyTicks::CLK_GATED    103863500                       # Cumulative time (in ticks) in various power states
system.cpu06.Branches                             904                       # Number of branches fetched
system.cpu06.committedInsts                      4777                       # Number of instructions committed
system.cpu06.committedOps                        4783                       # Number of ops (including micro ops) committed
system.cpu06.dtb.accesses                           0                       # DTB accesses
system.cpu06.dtb.hits                               0                       # DTB hits
system.cpu06.dtb.misses                             0                       # DTB misses
system.cpu06.dtb.pwrStateResidencyTicks::UNDEFINED    697577500                       # Cumulative time (in ticks) in various power states
system.cpu06.dtb.read_accesses                      0                       # DTB read accesses
system.cpu06.dtb.read_hits                          0                       # DTB read hits
system.cpu06.dtb.read_misses                        0                       # DTB read misses
system.cpu06.dtb.write_accesses                     0                       # DTB write accesses
system.cpu06.dtb.write_hits                         0                       # DTB write hits
system.cpu06.dtb.write_misses                       0                       # DTB write misses
system.cpu06.idle_fraction                   0.982368                       # Percentage of idle cycles
system.cpu06.itb.accesses                           0                       # DTB accesses
system.cpu06.itb.hits                               0                       # DTB hits
system.cpu06.itb.misses                             0                       # DTB misses
system.cpu06.itb.pwrStateResidencyTicks::UNDEFINED    697577500                       # Cumulative time (in ticks) in various power states
system.cpu06.itb.read_accesses                      0                       # DTB read accesses
system.cpu06.itb.read_hits                          0                       # DTB read hits
system.cpu06.itb.read_misses                        0                       # DTB read misses
system.cpu06.itb.write_accesses                     0                       # DTB write accesses
system.cpu06.itb.write_hits                         0                       # DTB write hits
system.cpu06.itb.write_misses                       0                       # DTB write misses
system.cpu06.not_idle_fraction               0.017632                       # Percentage of non-idle cycles
system.cpu06.numCycles                        1395155                       # number of cpu cycles simulated
system.cpu06.numPwrStateTransitions                 2                       # Number of power state transitions
system.cpu06.numWorkItemsCompleted                  0                       # number of work items this cpu completed
system.cpu06.numWorkItemsStarted                    0                       # number of work items this cpu started
system.cpu06.num_busy_cycles             24600.001965                       # Number of busy cycles
system.cpu06.num_conditional_control_insts          458                       # number of instructions that are conditional controls
system.cpu06.num_fp_alu_accesses                   12                       # Number of float alu accesses
system.cpu06.num_fp_insts                          12                       # number of float instructions
system.cpu06.num_fp_register_reads                 12                       # number of times the floating registers were read
system.cpu06.num_fp_register_writes                 0                       # number of times the floating registers were written
system.cpu06.num_func_calls                       446                       # number of times a function call or return occured
system.cpu06.num_idle_cycles             1370554.998035                       # Number of idle cycles
system.cpu06.num_int_alu_accesses                4683                       # Number of integer alu accesses
system.cpu06.num_int_insts                       4683                       # number of integer instructions
system.cpu06.num_int_register_reads              5400                       # number of times the integer registers were read
system.cpu06.num_int_register_writes             3476                       # number of times the integer registers were written
system.cpu06.num_load_insts                      1167                       # Number of load instructions
system.cpu06.num_mem_refs                        1729                       # number of memory refs
system.cpu06.num_store_insts                      562                       # Number of store instructions
system.cpu06.num_vec_alu_accesses                   0                       # Number of vector alu accesses
system.cpu06.num_vec_insts                          0                       # number of vector instructions
system.cpu06.num_vec_register_reads                 0                       # number of times the vector registers were read
system.cpu06.num_vec_register_writes                0                       # number of times the vector registers were written
system.cpu06.op_class::No_OpClass                  10      0.21%      0.21% # Class of executed instruction
system.cpu06.op_class::IntAlu                    3043     63.59%     63.80% # Class of executed instruction
system.cpu06.op_class::IntMult                      1      0.02%     63.82% # Class of executed instruction
system.cpu06.op_class::IntDiv                       2      0.04%     63.87% # Class of executed instruction
system.cpu06.op_class::FloatAdd                     0      0.00%     63.87% # Class of executed instruction
system.cpu06.op_class::FloatCmp                     0      0.00%     63.87% # Class of executed instruction
system.cpu06.op_class::FloatCvt                     0      0.00%     63.87% # Class of executed instruction
system.cpu06.op_class::FloatMult                    0      0.00%     63.87% # Class of executed instruction
system.cpu06.op_class::FloatMultAcc                 0      0.00%     63.87% # Class of executed instruction
system.cpu06.op_class::FloatDiv                     0      0.00%     63.87% # Class of executed instruction
system.cpu06.op_class::FloatMisc                    0      0.00%     63.87% # Class of executed instruction
system.cpu06.op_class::FloatSqrt                    0      0.00%     63.87% # Class of executed instruction
system.cpu06.op_class::SimdAdd                      0      0.00%     63.87% # Class of executed instruction
system.cpu06.op_class::SimdAddAcc                   0      0.00%     63.87% # Class of executed instruction
system.cpu06.op_class::SimdAlu                      0      0.00%     63.87% # Class of executed instruction
system.cpu06.op_class::SimdCmp                      0      0.00%     63.87% # Class of executed instruction
system.cpu06.op_class::SimdCvt                      0      0.00%     63.87% # Class of executed instruction
system.cpu06.op_class::SimdMisc                     0      0.00%     63.87% # Class of executed instruction
system.cpu06.op_class::SimdMult                     0      0.00%     63.87% # Class of executed instruction
system.cpu06.op_class::SimdMultAcc                  0      0.00%     63.87% # Class of executed instruction
system.cpu06.op_class::SimdShift                    0      0.00%     63.87% # Class of executed instruction
system.cpu06.op_class::SimdShiftAcc                 0      0.00%     63.87% # Class of executed instruction
system.cpu06.op_class::SimdSqrt                     0      0.00%     63.87% # Class of executed instruction
system.cpu06.op_class::SimdFloatAdd                 0      0.00%     63.87% # Class of executed instruction
system.cpu06.op_class::SimdFloatAlu                 0      0.00%     63.87% # Class of executed instruction
system.cpu06.op_class::SimdFloatCmp                 0      0.00%     63.87% # Class of executed instruction
system.cpu06.op_class::SimdFloatCvt                 0      0.00%     63.87% # Class of executed instruction
system.cpu06.op_class::SimdFloatDiv                 0      0.00%     63.87% # Class of executed instruction
system.cpu06.op_class::SimdFloatMisc                0      0.00%     63.87% # Class of executed instruction
system.cpu06.op_class::SimdFloatMult                0      0.00%     63.87% # Class of executed instruction
system.cpu06.op_class::SimdFloatMultAcc             0      0.00%     63.87% # Class of executed instruction
system.cpu06.op_class::SimdFloatSqrt                0      0.00%     63.87% # Class of executed instruction
system.cpu06.op_class::SimdAes                      0      0.00%     63.87% # Class of executed instruction
system.cpu06.op_class::SimdAesMix                   0      0.00%     63.87% # Class of executed instruction
system.cpu06.op_class::SimdSha1Hash                 0      0.00%     63.87% # Class of executed instruction
system.cpu06.op_class::SimdSha1Hash2                0      0.00%     63.87% # Class of executed instruction
system.cpu06.op_class::SimdSha256Hash               0      0.00%     63.87% # Class of executed instruction
system.cpu06.op_class::SimdSha256Hash2              0      0.00%     63.87% # Class of executed instruction
system.cpu06.op_class::SimdShaSigma2                0      0.00%     63.87% # Class of executed instruction
system.cpu06.op_class::SimdShaSigma3                0      0.00%     63.87% # Class of executed instruction
system.cpu06.op_class::MemRead                   1171     24.47%     88.34% # Class of executed instruction
system.cpu06.op_class::MemWrite                   546     11.41%     99.75% # Class of executed instruction
system.cpu06.op_class::FloatMemRead                 0      0.00%     99.75% # Class of executed instruction
system.cpu06.op_class::FloatMemWrite               12      0.25%    100.00% # Class of executed instruction
system.cpu06.op_class::IprAccess                    0      0.00%    100.00% # Class of executed instruction
system.cpu06.op_class::InstPrefetch                 0      0.00%    100.00% # Class of executed instruction
system.cpu06.op_class::total                     4785                       # Class of executed instruction
system.cpu06.pwrStateClkGateDist::samples            1                       # Distribution of time spent in the clock gated state
system.cpu06.pwrStateClkGateDist::mean       94050000                       # Distribution of time spent in the clock gated state
system.cpu06.pwrStateClkGateDist::1000-5e+10            1    100.00%    100.00% # Distribution of time spent in the clock gated state
system.cpu06.pwrStateClkGateDist::min_value     94050000                       # Distribution of time spent in the clock gated state
[...]
system.ruby.network.int_links39.credit_link.pwrStateResidencyTicks::UNDEFINED    697577500                       # Cumulative time (in ticks) in various power states
system.ruby.network.int_links39.network_link.pwrStateResidencyTicks::UNDEFINED    697577500                       # Cumulative time (in ticks) in various power states
system.ruby.network.int_links40.credit_link.pwrStateResidencyTicks::UNDEFINED    697577500                       # Cumulative time (in ticks) in various power states
system.ruby.network.int_links40.network_link.pwrStateResidencyTicks::UNDEFINED    697577500                       # Cumulative time (in ticks) in various power states
system.ruby.network.int_links41.credit_link.pwrStateResidencyTicks::UNDEFINED    697577500                       # Cumulative time (in ticks) in various power states
system.ruby.network.int_links41.network_link.pwrStateResidencyTicks::UNDEFINED    697577500                       # Cumulative time (in ticks) in various power states
system.ruby.network.int_links42.credit_link.pwrStateResidencyTicks::UNDEFINED    697577500                       # Cumulative time (in ticks) in various power states
system.ruby.network.int_links42.network_link.pwrStateResidencyTicks::UNDEFINED    697577500                       # Cumulative time (in ticks) in various power states
system.ruby.network.int_links43.credit_link.pwrStateResidencyTicks::UNDEFINED    697577500                       # Cumulative time (in ticks) in various power states
system.ruby.network.int_links43.network_link.pwrStateResidencyTicks::UNDEFINED    697577500                       # Cumulative time (in ticks) in various power states
system.ruby.network.int_links44.credit_link.pwrStateResidencyTicks::UNDEFINED    697577500                       # Cumulative time (in ticks) in various power states
system.ruby.network.int_links44.network_link.pwrStateResidencyTicks::UNDEFINED    697577500                       # Cumulative time (in ticks) in various power states
system.ruby.network.int_links45.credit_link.pwrStateResidencyTicks::UNDEFINED    697577500                       # Cumulative time (in ticks) in various power states
system.ruby.network.int_links45.network_link.pwrStateResidencyTicks::UNDEFINED    697577500                       # Cumulative time (in ticks) in various power states
system.ruby.network.int_links46.credit_link.pwrStateResidencyTicks::UNDEFINED    697577500                       # Cumulative time (in ticks) in various power states
system.ruby.network.int_links46.network_link.pwrStateResidencyTicks::UNDEFINED    697577500                       # Cumulative time (in ticks) in various power states
system.ruby.network.int_links47.credit_link.pwrStateResidencyTicks::UNDEFINED    697577500                       # Cumulative time (in ticks) in various power states
system.ruby.network.int_links47.network_link.pwrStateResidencyTicks::UNDEFINED    697577500                       # Cumulative time (in ticks) in various power states
system.ruby.network.netifs00.pwrStateResidencyTicks::UNDEFINED    697577500                       # Cumulative time (in ticks) in various power states
system.ruby.network.netifs01.pwrStateResidencyTicks::UNDEFINED    697577500                       # Cumulative time (in ticks) in various power states
system.ruby.network.netifs02.pwrStateResidencyTicks::UNDEFINED    697577500                       # Cumulative time (in ticks) in various power states
system.ruby.network.netifs03.pwrStateResidencyTicks::UNDEFINED    697577500                       # Cumulative time (in ticks) in various power states
system.ruby.network.netifs04.pwrStateResidencyTicks::UNDEFINED    697577500                       # Cumulative time (in ticks) in various power states
system.ruby.network.netifs05.pwrStateResidencyTicks::UNDEFINED    697577500                       # Cumulative time (in ticks) in various power states
system.ruby.network.netifs06.pwrStateResidencyTicks::UNDEFINED    697577500                       # Cumulative time (in ticks) in various power states
system.ruby.network.netifs07.pwrStateResidencyTicks::UNDEFINED    697577500                       # Cumulative time (in ticks) in various power states
system.ruby.network.netifs08.pwrStateResidencyTicks::UNDEFINED    697577500                       # Cumulative time (in ticks) in various power states
system.ruby.network.netifs09.pwrStateResidencyTicks::UNDEFINED    697577500                       # Cumulative time (in ticks) in various power states
system.ruby.network.netifs10.pwrStateResidencyTicks::UNDEFINED    697577500                       # Cumulative time (in ticks) in various power states
system.ruby.network.netifs11.pwrStateResidencyTicks::UNDEFINED    697577500                       # Cumulative time (in ticks) in various power states
system.ruby.network.netifs12.pwrStateResidencyTicks::UNDEFINED    697577500                       # Cumulative time (in ticks) in various power states
system.ruby.network.netifs13.pwrStateResidencyTicks::UNDEFINED    697577500                       # Cumulative time (in ticks) in various power states
system.ruby.network.netifs14.pwrStateResidencyTicks::UNDEFINED    697577500                       # Cumulative time (in ticks) in various power states
system.ruby.network.netifs15.pwrStateResidencyTicks::UNDEFINED    697577500                       # Cumulative time (in ticks) in various power states
system.ruby.network.netifs16.pwrStateResidencyTicks::UNDEFINED    697577500                       # Cumulative time (in ticks) in various power states
system.ruby.network.netifs17.pwrStateResidencyTicks::UNDEFINED    697577500                       # Cumulative time (in ticks) in various power states
system.ruby.network.netifs18.pwrStateResidencyTicks::UNDEFINED    697577500                       # Cumulative time (in ticks) in various power states
system.ruby.network.netifs19.pwrStateResidencyTicks::UNDEFINED    697577500                       # Cumulative time (in ticks) in various power states
system.ruby.network.netifs20.pwrStateResidencyTicks::UNDEFINED    697577500                       # Cumulative time (in ticks) in various power states
system.ruby.network.netifs21.pwrStateResidencyTicks::UNDEFINED    697577500                       # Cumulative time (in ticks) in various power states
system.ruby.network.netifs22.pwrStateResidencyTicks::UNDEFINED    697577500                       # Cumulative time (in ticks) in various power states
system.ruby.network.netifs23.pwrStateResidencyTicks::UNDEFINED    697577500                       # Cumulative time (in ticks) in various power states
system.ruby.network.netifs24.pwrStateResidencyTicks::UNDEFINED    697577500                       # Cumulative time (in ticks) in various power states
system.ruby.network.netifs25.pwrStateResidencyTicks::UNDEFINED    697577500                       # Cumulative time (in ticks) in various power states
system.ruby.network.netifs26.pwrStateResidencyTicks::UNDEFINED    697577500                       # Cumulative time (in ticks) in various power states
system.ruby.network.netifs27.pwrStateResidencyTicks::UNDEFINED    697577500                       # Cumulative time (in ticks) in various power states
system.ruby.network.netifs28.pwrStateResidencyTicks::UNDEFINED    697577500                       # Cumulative time (in ticks) in various power states
system.ruby.network.netifs29.pwrStateResidencyTicks::UNDEFINED    697577500                       # Cumulative time (in ticks) in various power states
system.ruby.network.netifs30.pwrStateResidencyTicks::UNDEFINED    697577500                       # Cumulative time (in ticks) in various power states
system.ruby.network.netifs31.pwrStateResidencyTicks::UNDEFINED    697577500                       # Cumulative time (in ticks) in various power states
system.ruby.network.netifs32.pwrStateResidencyTicks::UNDEFINED    697577500                       # Cumulative time (in ticks) in various power states
system.ruby.network.netifs33.pwrStateResidencyTicks::UNDEFINED    697577500                       # Cumulative time (in ticks) in various power states
system.ruby.network.netifs34.pwrStateResidencyTicks::UNDEFINED    697577500                       # Cumulative time (in ticks) in various power states
system.ruby.network.netifs35.pwrStateResidencyTicks::UNDEFINED    697577500                       # Cumulative time (in ticks) in various power states
system.ruby.network.packet_network_latency |      533528                       |      564825                       |      142366                      
system.ruby.network.packet_queueing_latency |       42553                       |       27730                       |        6076                      
system.ruby.network.packets_injected     |       18545     42.79%     42.79% |       18714     43.18%     85.98% |        6076     14.02%    100.00%
system.ruby.network.packets_injected::total        43335                      
system.ruby.network.packets_received     |       18545     42.80%     42.80% |       18713     43.18%     85.98% |        6076     14.02%    100.00%
system.ruby.network.packets_received::total        43334                      
system.ruby.network.pwrStateResidencyTicks::UNDEFINED    697577500                       # Cumulative time (in ticks) in various power states
system.ruby.network.routers00.buffer_reads        88313                      
system.ruby.network.routers00.buffer_writes        88313                      
system.ruby.network.routers00.crossbar_activity        88313                      
system.ruby.network.routers00.pwrStateResidencyTicks::UNDEFINED    697577500                       # Cumulative time (in ticks) in various power states
system.ruby.network.routers00.sw_input_arbiter_activity        88343                      
system.ruby.network.routers00.sw_output_arbiter_activity        88313                      
system.ruby.network.routers01.buffer_reads        38549                      
system.ruby.network.routers01.buffer_writes        38549                      
system.ruby.network.routers01.crossbar_activity        38549                      
system.ruby.network.routers01.pwrStateResidencyTicks::UNDEFINED    697577500                       # Cumulative time (in ticks) in various power states
system.ruby.network.routers01.sw_input_arbiter_activity        38592                      
system.ruby.network.routers01.sw_output_arbiter_activity        38549                      
system.ruby.network.routers02.buffer_reads        25777                      
system.ruby.network.routers02.buffer_writes        25777                      
system.ruby.network.routers02.crossbar_activity        25777                      
system.ruby.network.routers02.pwrStateResidencyTicks::UNDEFINED    697577500                       # Cumulative time (in ticks) in various power states
system.ruby.network.routers02.sw_input_arbiter_activity        25785                      
system.ruby.network.routers02.sw_output_arbiter_activity        25777                      
system.ruby.network.routers03.buffer_reads        15599                      
system.ruby.network.routers03.buffer_writes        15599                      
system.ruby.network.routers03.crossbar_activity        15599                      
system.ruby.network.routers03.pwrStateResidencyTicks::UNDEFINED    697577500                       # Cumulative time (in ticks) in various power states
system.ruby.network.routers03.sw_input_arbiter_activity        15601                      
system.ruby.network.routers03.sw_output_arbiter_activity        15599                      
system.ruby.network.routers04.buffer_reads        49681                      
system.ruby.network.routers04.buffer_writes        49681                      
system.ruby.network.routers04.crossbar_activity        49681                      
system.ruby.network.routers04.pwrStateResidencyTicks::UNDEFINED    697577500                       # Cumulative time (in ticks) in various power states
system.ruby.network.routers04.sw_input_arbiter_activity        49691                      
system.ruby.network.routers04.sw_output_arbiter_activity        49681                      
system.ruby.network.routers05.buffer_reads        20252                      
system.ruby.network.routers05.buffer_writes        20252                      
system.ruby.network.routers05.crossbar_activity        20252                      
system.ruby.network.routers05.pwrStateResidencyTicks::UNDEFINED    697577500                       # Cumulative time (in ticks) in various power states
system.ruby.network.routers05.sw_input_arbiter_activity        20259                      
system.ruby.network.routers05.sw_output_arbiter_activity        20252                      
system.ruby.network.routers06.buffer_reads        16572                      
system.ruby.network.routers06.buffer_writes        16572                      
system.ruby.network.routers06.crossbar_activity        16572                      
system.ruby.network.routers06.pwrStateResidencyTicks::UNDEFINED    697577500                       # Cumulative time (in ticks) in various power states
system.ruby.network.routers06.sw_input_arbiter_activity        16582                      
system.ruby.network.routers06.sw_output_arbiter_activity        16572                      
system.ruby.network.routers07.buffer_reads        11499                      
system.ruby.network.routers07.buffer_writes        11499                      
system.ruby.network.routers07.crossbar_activity        11499                      
system.ruby.network.routers07.pwrStateResidencyTicks::UNDEFINED    697577500                       # Cumulative time (in ticks) in various power states
system.ruby.network.routers07.sw_input_arbiter_activity        11510                      
system.ruby.network.routers07.sw_output_arbiter_activity        11499                      
system.ruby.network.routers08.buffer_reads        32260                      
system.ruby.network.routers08.buffer_writes        32260                      
system.ruby.network.routers08.crossbar_activity        32260                      
system.ruby.network.routers08.pwrStateResidencyTicks::UNDEFINED    697577500                       # Cumulative time (in ticks) in various power states
system.ruby.network.routers08.sw_input_arbiter_activity        32272                      
system.ruby.network.routers08.sw_output_arbiter_activity        32260                      
system.ruby.network.routers09.buffer_reads        15916                      
system.ruby.network.routers09.buffer_writes        15916                      
system.ruby.network.routers09.crossbar_activity        15916                      
system.ruby.network.routers09.pwrStateResidencyTicks::UNDEFINED    697577500                       # Cumulative time (in ticks) in various power states
system.ruby.network.routers09.sw_input_arbiter_activity        15926                      
system.ruby.network.routers09.sw_output_arbiter_activity        15916                      
system.ruby.network.routers10.buffer_reads        15225                      
system.ruby.network.routers10.buffer_writes        15225                      
system.ruby.network.routers10.crossbar_activity        15225                      
system.ruby.network.routers10.pwrStateResidencyTicks::UNDEFINED    697577500                       # Cumulative time (in ticks) in various power states
system.ruby.network.routers10.sw_input_arbiter_activity        15232                      
system.ruby.network.routers10.sw_output_arbiter_activity        15225                      
system.ruby.network.routers11.buffer_reads        10517                      
system.ruby.network.routers11.buffer_writes        10517                      
system.ruby.network.routers11.crossbar_activity        10517                      
system.ruby.network.routers11.pwrStateResidencyTicks::UNDEFINED    697577500                       # Cumulative time (in ticks) in various power states
system.ruby.network.routers11.sw_input_arbiter_activity        10524                      
system.ruby.network.routers11.sw_output_arbiter_activity        10517                      
system.ruby.network.routers12.buffer_reads        21640                      
system.ruby.network.routers12.buffer_writes        21640                      
system.ruby.network.routers12.crossbar_activity        21640                      
system.ruby.network.routers12.pwrStateResidencyTicks::UNDEFINED    697577500                       # Cumulative time (in ticks) in various power states
system.ruby.network.routers12.sw_input_arbiter_activity        21644                      
system.ruby.network.routers12.sw_output_arbiter_activity        21640                      
system.ruby.network.routers13.buffer_reads        17501                      
system.ruby.network.routers13.buffer_writes        17501                      
system.ruby.network.routers13.crossbar_activity        17501                      
system.ruby.network.routers13.pwrStateResidencyTicks::UNDEFINED    697577500                       # Cumulative time (in ticks) in various power states
system.ruby.network.routers13.sw_input_arbiter_activity        17510                      
system.ruby.network.routers13.sw_output_arbiter_activity        17501                      
system.ruby.network.routers14.buffer_reads        14588                      
system.ruby.network.routers14.buffer_writes        14588                      
system.ruby.network.routers14.crossbar_activity        14588                      
system.ruby.network.routers14.pwrStateResidencyTicks::UNDEFINED    697577500                       # Cumulative time (in ticks) in various power states
system.ruby.network.routers14.sw_input_arbiter_activity        14604                      
system.ruby.network.routers14.sw_output_arbiter_activity        14588                      
system.ruby.network.routers15.buffer_reads        10694                      
system.ruby.network.routers15.buffer_writes        10694                      
system.ruby.network.routers15.crossbar_activity        10694                      
system.ruby.network.routers15.pwrStateResidencyTicks::UNDEFINED    697577500                       # Cumulative time (in ticks) in various power states
system.ruby.network.routers15.sw_input_arbiter_activity        10698                      
system.ruby.network.routers15.sw_output_arbiter_activity        10694                      
system.ruby.outstanding_req_hist_seqr::bucket_size            1                      
system.ruby.outstanding_req_hist_seqr::max_bucket            9                      
system.ruby.outstanding_req_hist_seqr::samples       271817                      
system.ruby.outstanding_req_hist_seqr::mean            1                      
system.ruby.outstanding_req_hist_seqr::gmean            1                      
system.ruby.outstanding_req_hist_seqr    |           0      0.00%      0.00% |      271817    100.00%    100.00% |           0      0.00%    100.00% |           0      0.00%    100.00% |           0      0.00%    100.00% |           0      0.00%    100.00% |           0      0.00%    100.00% |           0      0.00%    100.00% |           0      0.00%    100.00% |           0      0.00%    100.00%
system.ruby.outstanding_req_hist_seqr::total       271817                      
system.ruby.pwrStateResidencyTicks::UNDEFINED    697577500                       # Cumulative time (in ticks) in various power states
system.sys_port_proxy.pwrStateResidencyTicks::UNDEFINED    697577500                       # Cumulative time (in ticks) in various power states
system.voltage_domain.voltage                       1                       # Voltage in Volts

---------- End Simulation Statistics   ----------
