
---------- Begin Simulation Statistics ----------
final_tick                                  564402000                       # Number of ticks from beginning of simulation (restored from checkpoints and never reset)
host_inst_rate                                  28365                       # Simulator instruction rate (inst/s)
host_mem_usage                                5159400                       # Number of bytes of host memory used
host_op_rate                                    28454                       # Simulator op (including micro ops) rate (op/s)
host_seconds                                     4.19                       # Real time elapsed on the host
host_tick_rate                              134827259                       # Simulator tick rate (ticks/s)
sim_freq                                 1000000000000                       # Frequency of simulated ticks
sim_insts                                      118731                       # Number of instructions simulated
sim_ops                                        119113                       # Number of ops (including micro ops) simulated
sim_seconds                                  0.000564                       # Number of seconds simulated
sim_ticks                                   564402000                       # Number of ticks simulated
system.clk_domain.clock                          1000                       # Clock period in ticks
system.cpu00.Branches                           22343                       # Number of branches fetched
system.cpu00.committedInsts                    100000                       # Number of instructions committed
system.cpu00.committedOps                      100293                       # Number of ops (including micro ops) committed
system.cpu00.dtb.accesses                           0                       # DTB accesses
system.cpu00.dtb.hits                               0                       # DTB hits
system.cpu00.dtb.misses                             0                       # DTB misses
system.cpu00.dtb.pwrStateResidencyTicks::UNDEFINED    564402000                       # Cumulative time (in ticks) in various power states
system.cpu00.dtb.read_accesses                      0                       # DTB read accesses
system.cpu00.dtb.read_hits                          0                       # DTB read hits
system.cpu00.dtb.read_misses                        0                       # DTB read misses
system.cpu00.dtb.write_accesses                     0                       # DTB write accesses
system.cpu00.dtb.write_hits                         0                       # DTB write hits
system.cpu00.dtb.write_misses                       0                       # DTB write misses
system.cpu00.idle_fraction                   0.003253                       # Percentage of idle cycles
system.cpu00.itb.accesses                           0                       # DTB accesses
system.cpu00.itb.hits                               0                       # DTB hits
system.cpu00.itb.misses                             0                       # DTB misses
system.cpu00.itb.pwrStateResidencyTicks::UNDEFINED    564402000                       # Cumulative time (in ticks) in various power states
system.cpu00.itb.read_accesses                      0                       # DTB read accesses
system.cpu00.itb.read_hits                          0                       # DTB read hits
system.cpu00.itb.read_misses                        0                       # DTB read misses
system.cpu00.itb.write_accesses                     0                       # DTB write accesses
system.cpu00.itb.write_hits                         0                       # DTB write hits
system.cpu00.itb.write_misses                       0                       # DTB write misses
system.cpu00.not_idle_fraction               0.996747                       # Percentage of non-idle cycles
system.cpu00.numCycles                        1128804                       # number of cpu cycles simulated
system.cpu00.numPwrStateTransitions                 2                       # Number of power state transitions
system.cpu00.numWorkItemsCompleted                  0                       # number of work items this cpu completed
system.cpu00.numWorkItemsStarted                    0                       # number of work items this cpu started
system.cpu00.num_busy_cycles             1125132.000007                       # Number of busy cycles
system.cpu00.num_conditional_control_insts        15923                       # number of instructions that are conditional controls
system.cpu00.num_fp_alu_accesses                   12                       # Number of float alu accesses
system.cpu00.num_fp_insts                          12                       # number of float instructions
system.cpu00.num_fp_register_reads                 12                       # number of times the floating registers were read
system.cpu00.num_fp_register_writes                 0                       # number of times the floating registers were written
system.cpu00.num_func_calls                      6420                       # number of times a function call or return occured
system.cpu00.num_idle_cycles              3671.999993                       # Number of idle cycles
system.cpu00.num_int_alu_accesses               98834                       # Number of integer alu accesses
system.cpu00.num_int_insts                      98834                       # number of integer instructions
system.cpu00.num_int_register_reads            120835                       # number of times the integer registers were read
system.cpu00.num_int_register_writes            64475                       # number of times the integer registers were written
system.cpu00.num_load_insts                     20291                       # Number of load instructions
system.cpu00.num_mem_refs                       36559                       # number of memory refs
system.cpu00.num_store_insts                    16268                       # Number of store instructions
system.cpu00.num_vec_alu_accesses                   0                       # Number of vector alu accesses
system.cpu00.num_vec_insts                          0                       # number of vector instructions
system.cpu00.num_vec_register_reads                 0                       # number of times the vector registers were read
system.cpu00.num_vec_register_writes                0                       # number of times the vector registers were written
system.cpu00.op_class::No_OpClass                 859      0.86%      0.86% # Class of executed instruction
system.cpu00.op_class::IntAlu                   62911     62.68%     63.54% # Class of executed instruction
system.cpu00.op_class::IntMult                     30      0.03%     63.57% # Class of executed instruction
system.cpu00.op_class::IntDiv                       6      0.01%     63.57% # Class of executed instruction
system.cpu00.op_class::FloatAdd                     0      0.00%     63.57% # Class of executed instruction
system.cpu00.op_class::FloatCmp                     0      0.00%     63.57% # Class of executed instruction
system.cpu00.op_class::FloatCvt                     0      0.00%     63.57% # Class of executed instruction
system.cpu00.op_class::FloatMult                    0      0.00%     63.57% # Class of executed instruction
system.cpu00.op_class::FloatMultAcc                 0      0.00%     63.57% # Class of executed instruction
system.cpu00.op_class::FloatDiv                     0      0.00%     63.57% # Class of executed instruction
system.cpu00.op_class::FloatMisc                    0      0.00%     63.57% # Class of executed instruction
system.cpu00.op_class::FloatSqrt                    0      0.00%     63.57% # Class of executed instruction
system.cpu00.op_class::SimdAdd                      0      0.00%     63.57% # Class of executed instruction
system.cpu00.op_class::SimdAddAcc                   0      0.00%     63.57% # Class of executed instruction
system.cpu00.op_class::SimdAlu                      0      0.00%     63.57% # Class of executed instruction
system.cpu00.op_class::SimdCmp                      0      0.00%     63.57% # Class of executed instruction
system.cpu00.op_class::SimdCvt                      0      0.00%     63.57% # Class of executed instruction
system.cpu00.op_class::SimdMisc                     0      0.00%     63.57% # Class of executed instruction
system.cpu00.op_class::SimdMult                     0      0.00%     63.57% # Class of executed instruction
system.cpu00.op_class::SimdMultAcc                  0      0.00%     63.57% # Class of executed instruction
system.cpu00.op_class::SimdShift                    0      0.00%     63.57% # Class of executed instruction
system.cpu00.op_class::SimdShiftAcc                 0      0.00%     63.57% # Class of executed instruction
system.cpu00.op_class::SimdSqrt                     0      0.00%     63.57% # Class of executed instruction
system.cpu00.op_class::SimdFloatAdd                 0      0.00%     63.57% # Class of executed instruction
system.cpu00.op_class::SimdFloatAlu                 0      0.00%     63.57% # Class of executed instruction
system.cpu00.op_class::SimdFloatCmp                 0      0.00%     63.57% # Class of executed instruction
system.cpu00.op_class::SimdFloatCvt                 0      0.00%     63.57% # Class of executed instruction
system.cpu00.op_class::SimdFloatDiv                 0      0.00%     63.57% # Class of executed instruction
system.cpu00.op_class::SimdFloatMisc                0      0.00%     63.57% # Class of executed instruction
system.cpu00.op_class::SimdFloatMult                0      0.00%     63.57% # Class of executed instruction
system.cpu00.op_class::SimdFloatMultAcc             0      0.00%     63.57% # Class of executed instruction
system.cpu00.op_class::SimdFloatSqrt                0      0.00%     63.57% # Class of executed instruction
system.cpu00.op_class::SimdAes                      0      0.00%     63.57% # Class of executed instruction
system.cpu00.op_class::SimdAesMix                   0      0.00%     63.57% # Class of executed instruction
system.cpu00.op_class::SimdSha1Hash                 0      0.00%     63.57% # Class of executed instruction
system.cpu00.op_class::SimdSha1Hash2                0      0.00%     63.57% # Class of executed instruction
system.cpu00.op_class::SimdSha256Hash               0      0.00%     63.57% # Class of executed instruction
system.cpu00.op_class::SimdSha256Hash2              0      0.00%     63.57% # Class of executed instruction
system.cpu00.op_class::SimdShaSigma2                0      0.00%     63.57% # Class of executed instruction
system.cpu00.op_class::SimdShaSigma3                0      0.00%     63.57% # Class of executed instruction
system.cpu00.op_class::MemRead                  20576     20.50%     84.08% # Class of executed instruction
system.cpu00.op_class::MemWrite                 15971     15.91%     99.99% # Class of executed instruction
system.cpu00.op_class::FloatMemRead                 0      0.00%     99.99% # Class of executed instruction
system.cpu00.op_class::FloatMemWrite               12      0.01%    100.00% # Class of executed instruction
system.cpu00.op_class::IprAccess                    0      0.00%    100.00% # Class of executed instruction
system.cpu00.op_class::InstPrefetch                 0      0.00%    100.00% # Class of executed instruction
system.cpu00.op_class::total                   100365                       # Class of executed instruction
system.cpu00.pwrStateClkGateDist::samples            1                       # Distribution of time spent in the clock gated state
system.cpu00.pwrStateClkGateDist::mean        1836000                       # Distribution of time spent in the clock gated state
system.cpu00.pwrStateClkGateDist::1000-5e+10            1    100.00%    100.00% # Distribution of time spent in the clock gated state
system.cpu00.pwrStateClkGateDist::min_value      1836000                       # Distribution of time spent in the clock gated state
system.cpu00.pwrStateClkGateDist::max_value      1836000                       # Distribution of time spent in the clock gated state
system.cpu00.pwrStateClkGateDist::total             1                       # Distribution of time spent in the clock gated state
system.cpu00.pwrStateResidencyTicks::ON     562566000                       # Cumulative time (in ticks) in various power states
system.cpu00.pwrStateResidencyTicks::CLK_GATED      1836000                       # Cumulative time (in ticks) in various power states
system.cpu00.workload.numSyscalls                  71                       # Number of system calls
system.cpu01.Branches                             245                       # Number of branches fetched
system.cpu01.committedInsts                      1264                       # Number of instructions committed
system.cpu01.committedOps                        1270                       # Number of ops (including micro ops) committed
system.cpu01.dtb.accesses                           0                       # DTB accesses
system.cpu01.dtb.hits                               0                       # DTB hits
system.cpu01.dtb.misses                             0                       # DTB misses
system.cpu01.dtb.pwrStateResidencyTicks::UNDEFINED    564402000                       # Cumulative time (in ticks) in various power states
system.cpu01.dtb.read_accesses                      0                       # DTB read accesses
system.cpu01.dtb.read_hits                          0                       # DTB read hits
system.cpu01.dtb.read_misses                        0                       # DTB read misses
system.cpu01.dtb.write_accesses                     0                       # DTB write accesses
system.cpu01.dtb.write_hits                         0                       # DTB write hits
system.cpu01.dtb.write_misses                       0                       # DTB write misses
system.cpu01.idle_fraction                   0.976977                       # Percentage of idle cycles
system.cpu01.itb.accesses                           0                       # DTB accesses
system.cpu01.itb.hits                               0                       # DTB hits
system.cpu01.itb.misses                             0                       # DTB misses
system.cpu01.itb.pwrStateResidencyTicks::UNDEFINED    564402000                       # Cumulative time (in ticks) in various power states
system.cpu01.itb.read_accesses                      0                       # DTB read accesses
system.cpu01.itb.read_hits                          0                       # DTB read hits
system.cpu01.itb.read_misses                        0                       # DTB read misses
system.cpu01.itb.write_accesses                     0                       # DTB write accesses
system.cpu01.itb.write_hits                         0                       # DTB write hits
system.cpu01.itb.write_misses                       0                       # DTB write misses
system.cpu01.not_idle_fraction               0.023023                       # Percentage of non-idle cycles
system.cpu01.numCycles                        1128670                       # number of cpu cycles simulated
system.cpu01.numPwrStateTransitions                 2                       # Number of power state transitions
system.cpu01.numWorkItemsCompleted                  0                       # number of work items this cpu completed
system.cpu01.numWorkItemsStarted                    0                       # number of work items this cpu started
system.cpu01.num_busy_cycles             25985.916807                       # Number of busy cycles
system.cpu01.num_conditional_control_insts          129                       # number of instructions that are conditional controls
system.cpu01.num_fp_alu_accesses                   12                       # Number of float alu accesses
system.cpu01.num_fp_insts                          12                       # number of float instructions
system.cpu01.num_fp_register_reads                 12                       # number of times the floating registers were read
system.cpu01.num_fp_register_writes                 0                       # number of times the floating registers were written
system.cpu01.num_func_calls                       116                       # number of times a function call or return occured
system.cpu01.num_idle_cycles             1102684.083193                       # Number of idle cycles
system.cpu01.num_int_alu_accesses                1244                       # Number of integer alu accesses
system.cpu01.num_int_insts                       1244                       # number of integer instructions
system.cpu01.num_int_register_reads              1451                       # number of times the integer registers were read
system.cpu01.num_int_register_writes              879                       # number of times the integer registers were written
system.cpu01.num_load_insts                       290                       # Number of load instructions
system.cpu01.num_mem_refs                         486                       # number of memory refs
system.cpu01.num_store_insts                      196                       # Number of store instructions
system.cpu01.num_vec_alu_accesses                   0                       # Number of vector alu accesses
system.cpu01.num_vec_insts                          0                       # number of vector instructions
system.cpu01.num_vec_register_reads                 0                       # number of times the vector registers were read
system.cpu01.num_vec_register_writes                0                       # number of times the vector registers were written
system.cpu01.op_class::No_OpClass                  10      0.79%      0.79% # Class of executed instruction
system.cpu01.op_class::IntAlu                     773     60.77%     61.56% # Class of executed instruction
system.cpu01.op_class::IntMult                      1      0.08%     61.64% # Class of executed instruction
system.cpu01.op_class::IntDiv                       2      0.16%     61.79% # Class of executed instruction
system.cpu01.op_class::FloatAdd                     0      0.00%     61.79% # Class of executed instruction
system.cpu01.op_class::FloatCmp                     0      0.00%     61.79% # Class of executed instruction
system.cpu01.op_class::FloatCvt                     0      0.00%     61.79% # Class of executed instruction
system.cpu01.op_class::FloatMult                    0      0.00%     61.79% # Class of executed instruction
system.cpu01.op_class::FloatMultAcc                 0      0.00%     61.79% # Class of executed instruction
system.cpu01.op_class::FloatDiv                     0      0.00%     61.79% # Class of executed instruction
system.cpu01.op_class::FloatMisc                    0      0.00%     61.79% # Class of executed instruction
system.cpu01.op_class::FloatSqrt                    0      0.00%     61.79% # Class of executed instruction
system.cpu01.op_class::SimdAdd                      0      0.00%     61.79% # Class of executed instruction
system.cpu01.op_class::SimdAddAcc                   0      0.00%     61.79% # Class of executed instruction
system.cpu01.op_class::SimdAlu                      0      0.00%     61.79% # Class of executed instruction
system.cpu01.op_class::SimdCmp                      0      0.00%     61.79% # Class of executed instruction
system.cpu01.op_class::SimdCvt                      0      0.00%     61.79% # Class of executed instruction
system.cpu01.op_class::SimdMisc                     0      0.00%     61.79% # Class of executed instruction
system.cpu01.op_class::SimdMult                     0      0.00%     61.79% # Class of executed instruction
system.cpu01.op_class::SimdMultAcc                  0      0.00%     61.79% # Class of executed instruction
system.cpu01.op_class::SimdShift                    0      0.00%     61.79% # Class of executed instruction
system.cpu01.op_class::SimdShiftAcc                 0      0.00%     61.79% # Class of executed instruction
system.cpu01.op_class::SimdSqrt                     0      0.00%     61.79% # Class of executed instruction
system.cpu01.op_class::SimdFloatAdd                 0      0.00%     61.79% # Class of executed instruction
system.cpu01.op_class::SimdFloatAlu                 0      0.00%     61.79% # Class of executed instruction
system.cpu01.op_class::SimdFloatCmp                 0      0.00%     61.79% # Class of executed instruction
system.cpu01.op_class::SimdFloatCvt                 0      0.00%     61.79% # Class of executed instruction
system.cpu01.op_class::SimdFloatDiv                 0      0.00%     61.79% # Class of executed instruction
system.cpu01.op_class::SimdFloatMisc                0      0.00%     61.79% # Class of executed instruction
system.cpu01.op_class::SimdFloatMult                0      0.00%     61.79% # Class of executed instruction
system.cpu01.op_class::SimdFloatMultAcc             0      0.00%     61.79% # Class of executed instruction
system.cpu01.op_class::SimdFloatSqrt                0      0.00%     61.79% # Class of executed instruction
system.cpu01.op_class::SimdAes                      0      0.00%     61.79% # Class of executed instruction
system.cpu01.op_class::SimdAesMix                   0      0.00%     61.79% # Class of executed instruction
system.cpu01.op_class::SimdSha1Hash                 0      0.00%     61.79% # Class of executed instruction
system.cpu01.op_class::SimdSha1Hash2                0      0.00%     61.79% # Class of executed instruction
system.cpu01.op_class::SimdSha256Hash               0      0.00%     61.79% # Class of executed instruction
system.cpu01.op_class::SimdSha256Hash2              0      0.00%     61.79% # Class of executed instruction
system.cpu01.op_class::SimdShaSigma2                0      0.00%     61.79% # Class of executed instruction
system.cpu01.op_class::SimdShaSigma3                0      0.00%     61.79% # Class of executed instruction
system.cpu01.op_class::MemRead                    294     23.11%     84.91% # Class of executed instruction
system.cpu01.op_class::MemWrite                   180     14.15%     99.06% # Class of executed instruction
system.cpu01.op_class::FloatMemRead                 0      0.00%     99.06% # Class of executed instruction
system.cpu01.op_class::FloatMemWrite               12      0.94%    100.00% # Class of executed instruction
system.cpu01.op_class::IprAccess                    0      0.00%    100.00% # Class of executed instruction
system.cpu01.op_class::InstPrefetch                 0      0.00%    100.00% # Class of executed instruction
system.cpu01.op_class::total                     1272                       # Class of executed instruction
system.cpu01.pwrStateClkGateDist::samples            1                       # Distribution of time spent in the clock gated state
system.cpu01.pwrStateClkGateDist::mean      125456500                       # Distribution of time spent in the clock gated state
system.cpu01.pwrStateClkGateDist::1000-5e+10            1    100.00%    100.00% # Distribution of time spent in the clock gated state
system.cpu01.pwrStateClkGateDist::min_value    125456500                       # Distribution of time spent in the clock gated state
system.cpu01.pwrStateClkGateDist::max_value    125456500                       # Distribution of time spent in the clock gated state
system.cpu01.pwrStateClkGateDist::total             1                       # Distribution of time spent in the clock gated state
system.cpu01.pwrStateResidencyTicks::ON     438945500                       # Cumulative time (in ticks) in various power states
system.cpu01.pwrStateResidencyTicks::CLK_GATED    125456500                       # Cumulative time (in ticks) in various power states
system.cpu02.Branches                             235                       # Number of branches fetched
system.cpu02.committedInsts                      1208                       # Number of instructions committed
system.cpu02.committedOps                        1214                       # Number of ops (including micro ops) committed
system.cpu02.dtb.accesses                           0                       # DTB accesses
system.cpu02.dtb.hits                               0                       # DTB hits
system.cpu02.dtb.misses                             0                       # DTB misses
system.cpu02.dtb.pwrStateResidencyTicks::UNDEFINED    564402000                       # Cumulative time (in ticks) in various power states
system.cpu02.dtb.read_accesses                      0                       # DTB read accesses
system.cpu02.dtb.read_hits                          0                       # DTB read hits
system.cpu02.dtb.read_misses                        0                       # DTB read misses
system.cpu02.dtb.write_accesses                     0                       # DTB write accesses
system.cpu02.dtb.write_hits                         0                       # DTB write hits
system.cpu02.dtb.write_misses                       0                       # DTB write misses
system.cpu02.idle_fraction                   0.980255                       # Percentage of idle cycles
system.cpu02.itb.accesses                           0                       # DTB accesses
system.cpu02.itb.hits                               0                       # DTB hits
system.cpu02.itb.misses                             0                       # DTB misses
system.cpu02.itb.pwrStateResidencyTicks::UNDEFINED    564402000                       # Cumulative time (in ticks) in various power states
system.cpu02.itb.read_accesses                      0                       # DTB read accesses
system.cpu02.itb.read_hits                          0                       # DTB read hits
system.cpu02.itb.read_misses                        0                       # DTB read misses
system.cpu02.itb.write_accesses                     0                       # DTB write accesses
system.cpu02.itb.write_hits                         0                       # DTB write hits
system.cpu02.itb.write_misses                       0                       # DTB write misses
system.cpu02.not_idle_fraction               0.019745                       # Percentage of non-idle cycles
system.cpu02.numCycles                        1128639                       # number of cpu cycles simulated
system.cpu02.numPwrStateTransitions                 2                       # Number of power state transitions
system.cpu02.numWorkItemsCompleted                  0                       # number of work items this cpu completed
system.cpu02.numWorkItemsStarted                    0                       # number of work items this cpu started
system.cpu02.num_busy_cycles             22284.744070                       # Number of busy cycles
system.cpu02.num_conditional_control_insts          123                       # number of instructions that are conditional controls
system.cpu02.num_fp_alu_accesses                   12                       # Number of float alu accesses
system.cpu02.num_fp_insts                          12                       # number of float instructions
system.cpu02.num_fp_register_reads                 12                       # number of times the floating registers were read
system.cpu02.num_fp_register_writes                 0                       # number of times the floating registers were written
system.cpu02.num_func_calls                       112                       # number of times a function call or return occured
system.cpu02.num_idle_cycles             1106354.255930                       # Number of idle cycles
system.cpu02.num_int_alu_accesses                1188                       # Number of integer alu accesses
system.cpu02.num_int_insts                       1188                       # number of integer instructions
system.cpu02.num_int_register_reads              1387                       # number of times the integer registers were read
system.cpu02.num_int_register_writes              837                       # number of times the integer registers were written
system.cpu02.num_load_insts                       276                       # Number of load instructions
system.cpu02.num_mem_refs                         466                       # number of memory refs
system.cpu02.num_store_insts                      190                       # Number of store instructions
system.cpu02.num_vec_alu_accesses                   0                       # Number of vector alu accesses
system.cpu02.num_vec_insts                          0                       # number of vector instructions
system.cpu02.num_vec_register_reads                 0                       # number of times the vector registers were read
system.cpu02.num_vec_register_writes                0                       # number of times the vector registers were written
system.cpu02.op_class::No_OpClass                  10      0.82%      0.82% # Class of executed instruction
system.cpu02.op_class::IntAlu                     737     60.61%     61.43% # Class of executed instruction
system.cpu02.op_class::IntMult                      1      0.08%     61.51% # Class of executed instruction
system.cpu02.op_class::IntDiv                       2      0.16%     61.68% # Class of executed instruction
system.cpu02.op_class::FloatAdd                     0      0.00%     61.68% # Class of executed instruction
system.cpu02.op_class::FloatCmp                     0      0.00%     61.68% # Class of executed instruction
system.cpu02.op_class::FloatCvt                     0      0.00%     61.68% # Class of executed instruction
system.cpu02.op_class::FloatMult                    0      0.00%     61.68% # Class of executed instruction
system.cpu02.op_class::FloatMultAcc                 0      0.00%     61.68% # Class of executed instruction
system.cpu02.op_class::FloatDiv                     0      0.00%     61.68% # Class of executed instruction
system.cpu02.op_class::FloatMisc                    0      0.00%     61.68% # Class of executed instruction
system.cpu02.op_class::FloatSqrt                    0      0.00%     61.68% # Class of executed instruction
system.cpu02.op_class::SimdAdd                      0      0.00%     61.68% # Class of executed instruction
system.cpu02.op_class::SimdAddAcc                   0      0.00%     61.68% # Class of executed instruction
system.cpu02.op_class::SimdAlu                      0      0.00%     61.68% # Class of executed instruction
system.cpu02.op_class::SimdCmp                      0      0.00%     61.68% # Class of executed instruction
system.cpu02.op_class::SimdCvt                      0      0.00%     61.68% # Class of executed instruction
system.cpu02.op_class::SimdMisc                     0      0.00%     61.68% # Class of executed instruction
system.cpu02.op_class::SimdMult                     0      0.00%     61.68% # Class of executed instruction
system.cpu02.op_class::SimdMultAcc                  0      0.00%     61.68% # Class of executed instruction
system.cpu02.op_class::SimdShift                    0      0.00%     61.68% # Class of executed instruction
system.cpu02.op_class::SimdShiftAcc                 0      0.00%     61.68% # Class of executed instruction
system.cpu02.op_class::SimdSqrt                     0      0.00%     61.68% # Class of executed instruction
system.cpu02.op_class::SimdFloatAdd                 0      0.00%     61.68% # Class of executed instruction
system.cpu02.op_class::SimdFloatAlu                 0      0.00%     61.68% # Class of executed instruction
system.cpu02.op_class::SimdFloatCmp                 0      0.00%     61.68% # Class of executed instruction
system.cpu02.op_class::SimdFloatCvt                 0      0.00%     61.68% # Class of executed instruction
system.cpu02.op_class::SimdFloatDiv                 0      0.00%     61.68% # Class of executed instruction
system.cpu02.op_class::SimdFloatMisc                0      0.00%     61.68% # Class of executed instruction
system.cpu02.op_class::SimdFloatMult                0      0.00%     61.68% # Class of executed instruction
system.cpu02.op_class::SimdFloatMultAcc             0      0.00%     61.68% # Class of executed instruction
system.cpu02.op_class::SimdFloatSqrt                0      0.00%     61.68% # Class of executed instruction
system.cpu02.op_class::SimdAes                      0      0.00%     61.68% # Class of executed instruction
system.cpu02.op_class::SimdAesMix                   0      0.00%     61.68% # Class of executed instruction
system.cpu02.op_class::SimdSha1Hash                 0      0.00%     61.68% # Class of executed instruction
system.cpu02.op_class::SimdSha1Hash2                0      0.00%     61.68% # Class of executed instruction
system.cpu02.op_class::SimdSha256Hash               0      0.00%     61.68% # Class of executed instruction
system.cpu02.op_class::SimdSha256Hash2              0      0.00%     61.68% # Class of executed instruction
system.cpu02.op_class::SimdShaSigma2                0      0.00%     61.68% # Class of executed instruction
system.cpu02.op_class::SimdShaSigma3                0      0.00%     61.68% # Class of executed instruction
system.cpu02.op_class::MemRead                    280     23.03%     84.70% # Class of executed instruction
system.cpu02.op_class::MemWrite                   174     14.31%     99.01% # Class of executed instruction
system.cpu02.op_class::FloatMemRead                 0      0.00%     99.01% # Class of executed instruction
system.cpu02.op_class::FloatMemWrite               12      0.99%    100.00% # Class of executed instruction
system.cpu02.op_class::IprAccess                    0      0.00%    100.00% # Class of executed instruction
system.cpu02.op_class::InstPrefetch                 0      0.00%    100.00% # Class of executed instruction
system.cpu02.op_class::total                     1216                       # Class of executed instruction
system.cpu02.pwrStateClkGateDist::samples            1                       # Distribution of time spent in the clock gated state
system.cpu02.pwrStateClkGateDist::mean      118714000                       # Distribution of time spent in the clock gated state
system.cpu02.pwrStateClkGateDist::1000-5e+10            1    100.00%    100.00% # Distribution of time spent in the clock gated state
system.cpu02.pwrStateClkGateDist::min_value    118714000                       # Distribution of time spent in the clock gated state
system.cpu02.pwrStateClkGateDist::max_value    118714000                       # Distribution of time spent in the clock gated state
system.cpu02.pwrStateClkGateDist::total             1                       # Distribution of time spent in the clock gated state
system.cpu02.pwrStateResidencyTicks::ON     445688000                       # Cumulative time (in ticks) in various power states
system.cpu02.pwrStateResidencyTicks::CLK_GATED    118714000                       # Cumulative time (in ticks) in various power states
system.cpu03.Branches                             259                       # Number of branches fetched
system.cpu03.committedInsts                      1328                       # Number of instructions committed
system.cpu03.committedOps                        1334                       # Number of ops (including micro ops) committed
system.cpu03.dtb.accesses                           0                       # DTB accesses
system.cpu03.dtb.hits                               0                       # DTB hits
system.cpu03.dtb.misses                             0                       # DTB misses
system.cpu03.dtb.pwrStateResidencyTicks::UNDEFINED    564402000                       # Cumulative time (in ticks) in various power states
system.cpu03.dtb.read_accesses                      0                       # DTB read accesses
system.cpu03.dtb.read_hits                          0                       # DTB read hits
system.cpu03.dtb.read_misses                        0                       # DTB read misses
system.cpu03.dtb.write_accesses                     0                       # DTB write accesses
system.cpu03.dtb.write_hits                         0                       # DTB write hits
system.cpu03.dtb.write_misses                       0                       # DTB write misses
system.cpu03.idle_fraction                   0.980045                       # Percentage of idle cycles
system.cpu03.itb.accesses                           0                       # DTB accesses
system.cpu03.itb.hits                               0                       # DTB hits
system.cpu03.itb.misses                             0                       # DTB misses
system.cpu03.itb.pwrStateResidencyTicks::UNDEFINED    564402000                       # Cumulative time (in ticks) in various power states
system.cpu03.itb.read_accesses                      0                       # DTB read accesses
system.cpu03.itb.read_hits                          0                       # DTB read hits
system.cpu03.itb.read_misses                        0                       # DTB read misses
system.cpu03.itb.write_accesses                     0                       # DTB write accesses
system.cpu03.itb.write_hits                         0                       # DTB write hits
system.cpu03.itb.write_misses                       0                       # DTB write misses
system.cpu03.not_idle_fraction               0.019955                       # Percentage of non-idle cycles
system.cpu03.numCycles                        1128778                       # number of cpu cycles simulated
system.cpu03.numPwrStateTransitions                 2                       # Number of power state transitions
system.cpu03.numWorkItemsCompleted                  0                       # number of work items this cpu completed
system.cpu03.numWorkItemsStarted                    0                       # number of work items this cpu started
system.cpu03.num_busy_cycles             22524.483137                       # Number of busy cycles
system.cpu03.num_conditional_control_insts          132                       # number of instructions that are conditional controls
system.cpu03.num_fp_alu_accesses                   12                       # Number of float alu accesses
system.cpu03.num_fp_insts                          12                       # number of float instructions
system.cpu03.num_fp_register_reads                 12                       # number of times the floating registers were read
system.cpu03.num_fp_register_writes                 0                       # number of times the floating registers were written
system.cpu03.num_func_calls                       127                       # number of times a function call or return occured
system.cpu03.num_idle_cycles             1106253.516863                       # Number of idle cycles
system.cpu03.num_int_alu_accesses                1302                       # Number of integer alu accesses
system.cpu03.num_int_insts                       1302                       # number of integer instructions
system.cpu03.num_int_register_reads              1519                       # number of times the integer registers were read
system.cpu03.num_int_register_writes              924                       # number of times the integer registers were written
system.cpu03.num_load_insts                       306                       # Number of load instructions
system.cpu03.num_mem_refs                         508                       # number of memory refs
system.cpu03.num_store_insts                      202                       # Number of store instructions
system.cpu03.num_vec_alu_accesses                   0                       # Number of vector alu accesses
system.cpu03.num_vec_insts                          0                       # number of vector instructions
system.cpu03.num_vec_register_reads                 0                       # number of times the vector registers were read
system.cpu03.num_vec_register_writes                0                       # number of times the vector registers were written
system.cpu03.op_class::No_OpClass                  10      0.75%      0.75% # Class of executed instruction
system.cpu03.op_class::IntAlu                     815     61.00%     61.75% # Class of executed instruction
system.cpu03.op_class::IntMult                      1      0.07%     61.83% # Class of executed instruction
system.cpu03.op_class::IntDiv                       2      0.15%     61.98% # Class of executed instruction
system.cpu03.op_class::FloatAdd                     0      0.00%     61.98% # Class of executed instruction
system.cpu03.op_class::FloatCmp                     0      0.00%     61.98% # Class of executed instruction
system.cpu03.op_class::FloatCvt                     0      0.00%     61.98% # Class of executed instruction
system.cpu03.op_class::FloatMult                    0      0.00%     61.98% # Class of executed instruction
system.cpu03.op_class::FloatMultAcc                 0      0.00%     61.98% # Class of executed instruction
system.cpu03.op_class::FloatDiv                     0      0.00%     61.98% # Class of executed instruction
system.cpu03.op_class::FloatMisc                    0      0.00%     61.98% # Class of executed instruction
system.cpu03.op_class::FloatSqrt                    0      0.00%     61.98% # Class of executed instruction
system.cpu03.op_class::SimdAdd                      0      0.00%     61.98% # Class of executed instruction
system.cpu03.op_class::SimdAddAcc                   0      0.00%     61.98% # Class of executed instruction
system.cpu03.op_class::SimdAlu                      0      0.00%     61.98% # Class of executed instruction
system.cpu03.op_class::SimdCmp                      0      0.00%     61.98% # Class of executed instruction
system.cpu03.op_class::SimdCvt                      0      0.00%     61.98% # Class of executed instruction
system.cpu03.op_class::SimdMisc                     0      0.00%     61.98% # Class of executed instruction
system.cpu03.op_class::SimdMult                     0      0.00%     61.98% # Class of executed instruction
system.cpu03.op_class::SimdMultAcc                  0      0.00%     61.98% # Class of executed instruction
system.cpu03.op_class::SimdShift                    0      0.00%     61.98% # Class of executed instruction
system.cpu03.op_class::SimdShiftAcc                 0      0.00%     61.98% # Class of executed instruction
system.cpu03.op_class::SimdSqrt                     0      0.00%     61.98% # Class of executed instruction
system.cpu03.op_class::SimdFloatAdd                 0      0.00%     61.98% # Class of executed instruction
system.cpu03.op_class::SimdFloatAlu                 0      0.00%     61.98% # Class of executed instruction
system.cpu03.op_class::SimdFloatCmp                 0      0.00%     61.98% # Class of executed instruction
system.cpu03.op_class::SimdFloatCvt                 0      0.00%     61.98% # Class of executed instruction
system.cpu03.op_class::SimdFloatDiv                 0      0.00%     61.98% # Class of executed instruction
system.cpu03.op_class::SimdFloatMisc                0      0.00%     61.98% # Class of executed instruction
system.cpu03.op_class::SimdFloatMult                0      0.00%     61.98% # Class of executed instruction
system.cpu03.op_class::SimdFloatMultAcc             0      0.00%     61.98% # Class of executed instruction
system.cpu03.op_class::SimdFloatSqrt                0      0.00%     61.98% # Class of executed instruction
system.cpu03.op_class::SimdAes                      0      0.00%     61.98% # Class of executed instruction
system.cpu03.op_class::SimdAesMix                   0      0.00%     61.98% # Class of executed instruction
system.cpu03.op_class::SimdSha1Hash                 0      0.00%     61.98% # Class of executed instruction
system.cpu03.op_class::SimdSha1Hash2                0      0.00%     61.98% # Class of executed instruction
system.cpu03.op_class::SimdSha256Hash               0      0.00%     61.98% # Class of executed instruction
system.cpu03.op_class::SimdSha256Hash2              0      0.00%     61.98% # Class of executed instruction
system.cpu03.op_class::SimdShaSigma2                0      0.00%     61.98% # Class of executed instruction
system.cpu03.op_class::SimdShaSigma3                0      0.00%     61.98% # Class of executed instruction
system.cpu03.op_class::MemRead                    310     23.20%     85.18% # Class of executed instruction
system.cpu03.op_class::MemWrite                   186     13.92%     99.10% # Class of executed instruction
system.cpu03.op_class::FloatMemRead                 0      0.00%     99.10% # Class of executed instruction
system.cpu03.op_class::FloatMemWrite               12      0.90%    100.00% # Class of executed instruction
system.cpu03.op_class::IprAccess                    0      0.00%    100.00% # Class of executed instruction
system.cpu03.op_class::InstPrefetch                 0      0.00%    100.00% # Class of executed instruction
system.cpu03.op_class::total                     1336                       # Class of executed instruction
system.cpu03.pwrStateClkGateDist::samples            1                       # Distribution of time spent in the clock gated state
system.cpu03.pwrStateClkGateDist::mean      109833000                       # Distribution of time spent in the clock gated state
system.cpu03.pwrStateClkGateDist::1000-5e+10            1    100.00%    100.00% # Distribution of time spent in the clock gated state
system.cpu03.pwrStateClkGateDist::min_value    109833000                       # Distribution of time spent in the clock gated state
system.cpu03.pwrStateClkGateDist::max_value    109833000                       # Distribution of time spent in the clock gated state
system.cpu03.pwrStateClkGateDist::total             1                       # Distribution of time spent in the clock gated state
system.cpu03.pwrStateResidencyTicks::ON     454569000                       # Cumulative time (in ticks) in various power states
system.cpu03.pwrStateResidencyTicks::CLK_GATED    109833000                       # Cumulative time (in ticks) in various power states
system.cpu04.Branches                             233                       # Number of branches fetched
system.cpu04.committedInsts                      1192                       # Number of instructions committed
system.cpu04.committedOps                        1198                       # Number of ops (including micro ops) committed
system.cpu04.dtb.accesses                           0                       # DTB accesses
system.cpu04.dtb.hits                               0                       # DTB hits
system.cpu04.dtb.misses                             0                       # DTB misses
system.cpu04.dtb.pwrStateResidencyTicks::UNDEFINED    564402000                       # Cumulative time (in ticks) in various power states
system.cpu04.dtb.read_accesses                      0                       # DTB read accesses
system.cpu04.dtb.read_hits                          0                       # DTB read hits
system.cpu04.dtb.read_misses                        0                       # DTB read misses
system.cpu04.dtb.write_accesses                     0                       # DTB write accesses
system.cpu04.dtb.write_hits                         0                       # DTB write hits
system.cpu04.dtb.write_misses                       0                       # DTB write misses
system.cpu04.idle_fraction                   0.979433                       # Percentage of idle cycles
system.cpu04.itb.accesses                           0                       # DTB accesses
system.cpu04.itb.hits                               0                       # DTB hits
system.cpu04.itb.misses                             0                       # DTB misses
system.cpu04.itb.pwrStateResidencyTicks::UNDEFINED    564402000                       # Cumulative time (in ticks) in various power states
system.cpu04.itb.read_accesses                      0                       # DTB read accesses
system.cpu04.itb.read_hits                          0                       # DTB read hits
system.cpu04.itb.read_misses                        0                       # DTB read misses
system.cpu04.itb.write_accesses                     0                       # DTB write accesses
system.cpu04.itb.write_hits                         0                       # DTB write hits
system.cpu04.itb.write_misses                       0                       # DTB write misses
system.cpu04.not_idle_fraction               0.020567                       # Percentage of non-idle cycles
system.cpu04.numCycles                        1128769                       # number of cpu cycles simulated
system.cpu04.numPwrStateTransitions                 2                       # Number of power state transitions
system.cpu04.numWorkItemsCompleted                  0                       # number of work items this cpu completed
system.cpu04.numWorkItemsStarted                    0                       # number of work items this cpu started
system.cpu04.num_busy_cycles             23215.282117                       # Number of busy cycles
system.cpu04.num_conditional_control_insts          120                       # number of instructions that are conditional controls
system.cpu04.num_fp_alu_accesses                   12                       # Number of float alu accesses
system.cpu04.num_fp_insts                          12                       # number of float instructions
system.cpu04.num_fp_register_reads                 12                       # number of times the floating registers were read
system.cpu04.num_fp_register_writes                 0                       # number of times the floating registers were written
system.cpu04.num_func_calls                       113                       # number of times a function call or return occured
system.cpu04.num_idle_cycles             1105553.717883                       # Number of idle cycles
system.cpu04.num_int_alu_accesses                1170                       # Number of integer alu accesses
system.cpu04.num_int_insts                       1170                       # number of integer instructions
system.cpu04.num_int_register_reads              1367                       # number of times the integer registers were read
system.cpu04.num_int_register_writes              824                       # number of times the integer registers were written
system.cpu04.num_load_insts                       272                       # Number of load instructions
system.cpu04.num_mem_refs                         460                       # number of memory refs
system.cpu04.num_store_insts                      188                       # Number of store instructions
system.cpu04.num_vec_alu_accesses                   0                       # Number of vector alu accesses
system.cpu04.num_vec_insts                          0                       # number of vector instructions
system.cpu04.num_vec_register_reads                 0                       # number of times the vector registers were read
system.cpu04.num_vec_register_writes                0                       # number of times the vector registers were written
system.cpu04.op_class::No_OpClass                  10      0.83%      0.83% # Class of executed instruction
system.cpu04.op_class::IntAlu                     727     60.58%     61.42% # Class of executed instruction
system.cpu04.op_class::IntMult                      1      0.08%     61.50% # Class of executed instruction
system.cpu04.op_class::IntDiv                       2      0.17%     61.67% # Class of executed instruction
system.cpu04.op_class::FloatAdd                     0      0.00%     61.67% # Class of executed instruction
system.cpu04.op_class::FloatCmp                     0      0.00%     61.67% # Class of executed instruction
system.cpu04.op_class::FloatCvt                     0      0.00%     61.67% # Class of executed instruction
system.cpu04.op_class::FloatMult                    0      0.00%     61.67% # Class of executed instruction
system.cpu04.op_class::FloatMultAcc                 0      0.00%     61.67% # Class of executed instruction
system.cpu04.op_class::FloatDiv                     0      0.00%     61.67% # Class of executed instruction
system.cpu04.op_class::FloatMisc                    0      0.00%     61.67% # Class of executed instruction
system.cpu04.op_class::FloatSqrt                    0      0.00%     61.67% # Class of executed instruction
system.cpu04.op_class::SimdAdd                      0      0.00%     61.67% # Class of executed instruction
system.cpu04.op_class::SimdAddAcc                   0      0.00%     61.67% # Class of executed instruction
system.cpu04.op_class::SimdAlu                      0      0.00%     61.67% # Class of executed instruction
system.cpu04.op_class::SimdCmp                      0      0.00%     61.67% # Class of executed instruction
system.cpu04.op_class::SimdCvt                      0      0.00%     61.67% # Class of executed instruction
system.cpu04.op_class::SimdMisc                     0      0.00%     61.67% # Class of executed instruction
system.cpu04.op_class::SimdMult                     0      0.00%     61.67% # Class of executed instruction
system.cpu04.op_class::SimdMultAcc                  0      0.00%     61.67% # Class of executed instruction
system.cpu04.op_class::SimdShift                    0      0.00%     61.67% # Class of executed instruction
system.cpu04.op_class::SimdShiftAcc                 0      0.00%     61.67% # Class of executed instruction
system.cpu04.op_class::SimdSqrt                     0      0.00%     61.67% # Class of executed instruction
system.cpu04.op_class::SimdFloatAdd                 0      0.00%     61.67% # Class of executed instruction
system.cpu04.op_class::SimdFloatAlu                 0      0.00%     61.67% # Class of executed instruction
system.cpu04.op_class::SimdFloatCmp                 0      0.00%     61.67% # Class of executed instruction
system.cpu04.op_class::SimdFloatCvt                 0      0.00%     61.67% # Class of executed instruction
system.cpu04.op_class::SimdFloatDiv                 0      0.00%     61.67% # Class of executed instruction
system.cpu04.op_class::SimdFloatMisc                0      0.00%     61.67% # Class of executed instruction
system.cpu04.op_class::SimdFloatMult                0      0.00%     61.67% # Class of executed instruction
system.cpu04.op_class::SimdFloatMultAcc             0      0.00%     61.67% # Class of executed instruction
system.cpu04.op_class::SimdFloatSqrt                0      0.00%     61.67% # Class of executed instruction
system.cpu04.op_class::SimdAes                      0      0.00%     61.67% # Class of executed instruction
system.cpu04.op_class::SimdAesMix                   0      0.00%     61.67% # Class of executed instruction
system.cpu04.op_class::SimdSha1Hash                 0      0.00%     61.67% # Class of executed instruction
system.cpu04.op_class::SimdSha1Hash2                0      0.00%     61.67% # Class of executed instruction
system.cpu04.op_class::SimdSha256Hash               0      0.00%     61.67% # Class of executed instruction
system.cpu04.op_class::SimdSha256Hash2              0      0.00%     61.67% # Class of executed instruction
system.cpu04.op_class::SimdShaSigma2                0      0.00%     61.67% # Class of executed instruction
system.cpu04.op_class::SimdShaSigma3                0      0.00%     61.67% # Class of executed instruction
system.cpu04.op_class::MemRead                    276     23.00%     84.67% # Class of executed instruction
system.cpu04.op_class::MemWrite                   172     14.33%     99.00% # Class of executed instruction
system.cpu04.op_class::FloatMemRead                 0      0.00%     99.00% # Class of executed instruction
system.cpu04.op_class::FloatMemWrite               12      1.00%    100.00% # Class of executed instruction
system.cpu04.op_class::IprAccess                    0      0.00%    100.00% # Class of executed instruction
system.cpu04.op_class::InstPrefetch                 0      0.00%    100.00% # Class of executed instruction
system.cpu04.op_class::total                     1200                       # Class of executed instruction
system.cpu04.pwrStateClkGateDist::samples            1                       # Distribution of time spent in the clock gated state
system.cpu04.pwrStateClkGateDist::mean      100850000                       # Distribution of time spent in the clock gated state
system.cpu04.pwrStateClkGateDist::1000-5e+10            1    100.00%    100.00% # Distribution of time spent in the clock gated state
system.cpu04.pwrStateClkGateDist::min_value    100850000                       # Distribution of time spent in the clock gated state
system.cpu04.pwrStateClkGateDist::max_value    100850000                       # Distribution of time spent in the clock gated state
system.cpu04.pwrStateClkGateDist::total             1                       # Distribution of time spent in the clock gated state
system.cpu04.pwrStateResidencyTicks::ON     463552000                       # Cumulative time (in ticks) in various power states
system.cpu04.pwrStateResidencyTicks::CLK_GATED    100850000                       # Cumulative time (in ticks) in various power states
system.cpu05.Branches                             260                       # Number of branches fetched
system.cpu05.committedInsts                      1337                       # Number of instructions committed
system.cpu05.committedOps                        1343                       # Number of ops (including micro ops) committed
system.cpu05.dtb.accesses                           0                       # DTB accesses
system.cpu05.dtb.hits                               0                       # DTB hits
system.cpu05.dtb.misses                             0                       # DTB misses
system.cpu05.dtb.pwrStateResidencyTicks::UNDEFINED    564402000                       # Cumulative time (in ticks) in various power states
system.cpu05.dtb.read_accesses                      0                       # DTB read accesses
system.cpu05.dtb.read_hits                          0                       # DTB read hits
system.cpu05.dtb.read_misses                        0                       # DTB read misses
system.cpu05.dtb.write_accesses                     0                       # DTB write accesses
system.cpu05.dtb.write_hits                         0                       # DTB write hits
system.cpu05.dtb.write_misses                       0                       # DTB write misses
system.cpu05.idle_fraction                   0.979155                       # Percentage of idle cycles
system.cpu05.itb.accesses                           0                       # DTB accesses
system.cpu05.itb.hits                               0                       # DTB hits
system.cpu05.itb.misses                             0                       # DTB misses
system.cpu05.itb.pwrStateResidencyTicks::UNDEFINED    564402000                       # Cumulative time (in ticks) in various power states
system.cpu05.itb.read_accesses                      0                       # DTB read accesses
system.cpu05.itb.read_hits                          0                       # DTB read hits
system.cpu05.itb.read_misses                        0                       # DTB read misses
system.cpu05.itb.write_accesses                     0                       # DTB write accesses
system.cpu05.itb.write_hits                         0                       # DTB write hits
system.cpu05.itb.write_misses                       0                       # DTB write misses
system.cpu05.not_idle_fraction               0.020845                       # Percentage of non-idle cycles
system.cpu05.numCycles                        1128803                       # number of cpu cycles simulated
system.cpu05.numPwrStateTransitions                 2                       # Number of power state transitions
system.cpu05.numWorkItemsCompleted                  0                       # number of work items this cpu completed
system.cpu05.numWorkItemsStarted                    0                       # number of work items this cpu started
system.cpu05.num_busy_cycles             23529.981113                       # Number of busy cycles
system.cpu05.num_conditional_control_insts          135                       # number of instructions that are conditional controls
system.cpu05.num_fp_alu_accesses                   12                       # Number of float alu accesses
system.cpu05.num_fp_insts                          12                       # number of float instructions
system.cpu05.num_fp_register_reads                 12                       # number of times the floating registers were read
system.cpu05.num_fp_register_writes                 0                       # number of times the floating registers were written
system.cpu05.num_func_calls                       125                       # number of times a function call or return occured
system.cpu05.num_idle_cycles             1105273.018887                       # Number of idle cycles
system.cpu05.num_int_alu_accesses                1313                       # Number of integer alu accesses
system.cpu05.num_int_insts                       1313                       # number of integer instructions
system.cpu05.num_int_register_reads              1530                       # number of times the integer registers were read
system.cpu05.num_int_register_writes              930                       # number of times the integer registers were written
system.cpu05.num_load_insts                       307                       # Number of load instructions
system.cpu05.num_mem_refs                         511                       # number of memory refs
system.cpu05.num_store_insts                      204                       # Number of store instructions
system.cpu05.num_vec_alu_accesses                   0                       # Number of vector alu accesses
system.cpu05.num_vec_insts                          0                       # number of vector instructions
system.cpu05.num_vec_register_reads                 0                       # number of times the vector registers were read
system.cpu05.num_vec_register_writes                0                       # number of times the vector registers were written
system.cpu05.op_class::No_OpClass                  10      0.74%      0.74% # Class of executed instruction
system.cpu05.op_class::IntAlu                     821     61.04%     61.78% # Class of executed instruction
system.cpu05.op_class::IntMult                      1      0.07%     61.86% # Class of executed instruction
system.cpu05.op_class::IntDiv                       2      0.15%     62.01% # Class of executed instruction
system.cpu05.op_class::FloatAdd                     0      0.00%     62.01% # Class of executed instruction
system.cpu05.op_class::FloatCmp                     0      0.00%     62.01% # Class of executed instruction
system.cpu05.op_class::FloatCvt                     0      0.00%     62.01% # Class of executed instruction
system.cpu05.op_class::FloatMult                    0      0.00%     62.01% # Class of executed instruction
system.cpu05.op_class::FloatMultAcc                 0      0.00%     62.01% # Class of executed instruction
system.cpu05.op_class::FloatDiv                     0      0.00%     62.01% # Class of executed instruction
system.cpu05.op_class::FloatMisc                    0      0.00%     62.01% # Class of executed instruction
system.cpu05.op_class::FloatSqrt                    0      0.00%     62.01% # Class of executed instruction
system.cpu05.op_class::SimdAdd                      0      0.00%     62.01% # Class of executed instruction
system.cpu05.op_class::SimdAddAcc                   0      0.00%     62.01% # Class of executed instruction
system.cpu05.op_class::SimdAlu                      0      0.00%     62.01% # Class of executed instruction
system.cpu05.op_class::SimdCmp                      0      0.00%     62.01% # Class of executed instruction
system.cpu05.op_class::SimdCvt                      0      0.00%     62.01% # Class of executed instruction
system.cpu05.op_class::SimdMisc                     0      0.00%     62.01% # Class of executed instruction
system.cpu05.op_class::SimdMult                     0      0.00%     62.01% # Class of executed instruction
system.cpu05.op_class::SimdMultAcc                  0      0.00%     62.01% # Class of executed instruction
system.cpu05.op_class::SimdShift                    0      0.00%     62.01% # Class of executed instruction
system.cpu05.op_class::SimdShiftAcc                 0      0.00%     62.01% # Class of executed instruction
system.cpu05.op_class::SimdSqrt                     0      0.00%     62.01% # Class of executed instruction
system.cpu05.op_class::SimdFloatAdd                 0      0.00%     62.01% # Class of executed instruction
system.cpu05.op_class::SimdFloatAlu                 0      0.00%     62.01% # Class of executed instruction
system.cpu05.op_class::SimdFloatCmp                 0      0.00%     62.01% # Class of executed instruction
system.cpu05.op_class::SimdFloatCvt                 0      0.00%     62.01% # Class of executed instruction
system.cpu05.op_class::SimdFloatDiv                 0      0.00%     62.01% # Class of executed instruction
system.cpu05.op_class::SimdFloatMisc                0      0.00%     62.01% # Class of executed instruction
system.cpu05.op_class::SimdFloatMult                0      0.00%     62.01% # Class of executed instruction
system.cpu05.op_class::SimdFloatMultAcc             0      0.00%     62.01% # Class of executed instruction
system.cpu05.op_class::SimdFloatSqrt                0      0.00%     62.01% # Class of executed instruction
system.cpu05.op_class::SimdAes                      0      0.00%     62.01% # Class of executed instruction
system.cpu05.op_class::SimdAesMix                   0      0.00%     62.01% # Class of executed instruction
system.cpu05.op_class::SimdSha1Hash                 0      0.00%     62.01% # Class of executed instruction
system.cpu05.op_class::SimdSha1Hash2                0      0.00%     62.01% # Class of executed instruction
system.cpu05.op_class::SimdSha256Hash               0      0.00%     62.01% # Class of executed instruction
system.cpu05.op_class::SimdSha256Hash2              0      0.00%     62.01% # Class of executed instruction
system.cpu05.op_class::SimdShaSigma2                0      0.00%     62.01% # Class of executed instruction
system.cpu05.op_class::SimdShaSigma3                0      0.00%     62.01% # Class of executed instruction
system.cpu05.op_class::MemRead                    311     23.12%     85.13% # Class of executed instruction
system.cpu05.op_class::MemWrite                   188     13.98%     99.11% # Class of executed instruction
system.cpu05.op_class::FloatMemRead                 0      0.00%     99.11% # Class of executed instruction
system.cpu05.op_class::FloatMemWrite               12      0.89%    100.00% # Class of executed instruction
system.cpu05.op_class::IprAccess                    0      0.00%    100.00% # Class of executed instruction
system.cpu05.op_class::InstPrefetch                 0      0.00%    100.00% # Class of executed instruction
system.cpu05.op_class::total                     1345                       # Class of executed instruction
system.cpu05.pwrStateClkGateDist::samples            1                       # Distribution of time spent in the clock gated state
system.cpu05.pwrStateClkGateDist::mean       92494500                       # Distribution of time spent in the clock gated state
system.cpu05.pwrStateClkGateDist::1000-5e+10            1    100.00%    100.00% # Distribution of time spent in the clock gated state
system.cpu05.pwrStateClkGateDist::min_value     92494500                       # Distribution of time spent in the clock gated state
system.cpu05.pwrStateClkGateDist::max_value     92494500                       # Distribution of time spent in the clock gated state
system.cpu05.pwrStateClkGateDist::total             1                       # Distribution of time spent in the clock gated state
system.cpu05.pwrStateResidencyTicks::ON     471907500                       # Cumulative time (in ticks) in various power states
system.cpu05.pwrStateResidencyTicks::CLK_GATED     92494500                       # Cumulative time (in ticks) in various power states
system.cpu06.Branches                             264                       # Number of branches fetched
system.cpu06.committedInsts                      1363                       # Number of instructions committed
system.cpu06.committedOps                        1369                       # Number of ops (including micro ops) committed
system.cpu06.dtb.accesses                           0                       # DTB accesses
system.cpu06.dtb.hits                               0                       # DTB hits
system.cpu06.dtb.misses                             0                       # DTB misses
system.cpu06.dtb.pwrStateResidencyTicks::UNDEFINED    564402000                       # Cumulative time (in ticks) in various power states
system.cpu06.dtb.read_accesses                      0                       # DTB read accesses
system.cpu06.dtb.read_hits                          0                       # DTB read hits
system.cpu06.dtb.read_misses                        0                       # DTB read misses
system.cpu06.dtb.write_accesses                     0                       # DTB write accesses
system.cpu06.dtb.write_hits                         0                       # DTB write hits
system.cpu06.dtb.write_misses                       0                       # DTB write misses
system.cpu06.idle_fraction                   0.978394                       # Percentage of idle cycles
system.cpu06.itb.accesses                           0                       # DTB accesses
system.cpu06.itb.hits                               0                       # DTB hits
system.cpu06.itb.misses                             0                       # DTB misses
system.cpu06.itb.pwrStateResidencyTicks::UNDEFINED    564402000                       # Cumulative time (in ticks) in various power states
system.cpu06.itb.read_accesses                      0                       # DTB read accesses
system.cpu06.itb.read_hits                          0                       # DTB read hits
system.cpu06.itb.read_misses                        0                       # DTB read misses
system.cpu06.itb.write_accesses                     0                       # DTB write accesses
system.cpu06.itb.write_hits                         0                       # DTB write hits
system.cpu06.itb.write_misses                       0                       # DTB write misses
system.cpu06.not_idle_fraction               0.021606                       # Percentage of non-idle cycles
system.cpu06.numCycles                        1128803                       # number of cpu cycles simulated
system.cpu06.numPwrStateTransitions                 2                       # Number of power state transitions
system.cpu06.numWorkItemsCompleted                  0                       # number of work items this cpu completed
system.cpu06.numWorkItemsStarted                    0                       # number of work items this cpu started
system.cpu06.num_busy_cycles             24388.980351                       # Number of busy cycles
system.cpu06.num_conditional_control_insts          135                       # number of instructions that are conditional controls
system.cpu06.num_fp_alu_accesses                   12                       # Number of float alu accesses
system.cpu06.num_fp_insts                          12                       # number of float instructions
system.cpu06.num_fp_register_reads                 12                       # number of times the floating registers were read
system.cpu06.num_fp_register_writes                 0                       # number of times the floating registers were written
system.cpu06.num_func_calls                       129                       # number of times a function call or return occured
system.cpu06.num_idle_cycles             1104414.019649                       # Number of idle cycles
system.cpu06.num_int_alu_accesses                1337                       # Number of integer alu accesses
system.cpu06.num_int_insts                       1337                       # number of integer instructions
system.cpu06.num_int_register_reads              1558                       # number of times the integer registers were read
system.cpu06.num_int_register_writes              950                       # number of times the integer registers were written
system.cpu06.num_load_insts                       314                       # Number of load instructions
system.cpu06.num_mem_refs                         521                       # number of memory refs
system.cpu06.num_store_insts                      207                       # Number of store instructions
system.cpu06.num_vec_alu_accesses                   0                       # Number of vector alu accesses
system.cpu06.num_vec_insts                          0                       # number of vector instructions
system.cpu06.num_vec_register_reads                 0                       # number of times the vector registers were read
system.cpu06.num_vec_register_writes                0                       # number of times the vector registers were written
system.cpu06.op_class::No_OpClass                  10      0.73%      0.73% # Class of executed instruction
system.cpu06.op_class::IntAlu                     837     61.05%     61.78% # Class of executed instruction
system.cpu06.op_class::IntMult                      1      0.07%     61.85% # Class of executed instruction
system.cpu06.op_class::IntDiv                       2      0.15%     62.00% # Class of executed instruction
system.cpu06.op_class::FloatAdd                     0      0.00%     62.00% # Class of executed instruction
system.cpu06.op_class::FloatCmp                     0      0.00%     62.00% # Class of executed instruction
system.cpu06.op_class::FloatCvt                     0      0.00%     62.00% # Class of executed instruction
system.cpu06.op_class::FloatMult                    0      0.00%     62.00% # Class of executed instruction
system.cpu06.op_class::FloatMultAcc                 0      0.00%     62.00% # Class of executed instruction
system.cpu06.op_class::FloatDiv                     0      0.00%     62.00% # Class of executed instruction
system.cpu06.op_class::FloatMisc                    0      0.00%     62.00% # Class of executed instruction
system.cpu06.op_class::FloatSqrt                    0      0.00%     62.00% # Class of executed instruction
system.cpu06.op_class::SimdAdd                      0      0.00%     62.00% # Class of executed instruction
system.cpu06.op_class::SimdAddAcc                   0      0.00%     62.00% # Class of executed instruction
system.cpu06.op_class::SimdAlu                      0      0.00%     62.00% # Class of executed instruction
system.cpu06.op_class::SimdCmp                      0      0.00%     62.00% # Class of executed instruction
system.cpu06.op_class::SimdCvt                      0      0.00%     62.00% # Class of executed instruction
system.cpu06.op_class::SimdMisc                     0      0.00%     62.00% # Class of executed instruction
system.cpu06.op_class::SimdMult                     0      0.00%     62.00% # Class of executed instruction
system.cpu06.op_class::SimdMultAcc                  0      0.00%     62.00% # Class of executed instruction
system.cpu06.op_class::SimdShift                    0      0.00%     62.00% # Class of executed instruction
system.cpu06.op_class::SimdShiftAcc                 0      0.00%     62.00% # Class of executed instruction
system.cpu06.op_class::SimdSqrt                     0      0.00%     62.00% # Class of executed instruction
system.cpu06.op_class::SimdFloatAdd                 0      0.00%     62.00% # Class of executed instruction
system.cpu06.op_class::SimdFloatAlu                 0      0.00%     62.00% # Class of executed instruction
system.cpu06.op_class::SimdFloatCmp                 0      0.00%     62.00% # Class of executed instruction
system.cpu06.op_class::SimdFloatCvt                 0      0.00%     62.00% # Class of executed instruction
system.cpu06.op_class::SimdFloatDiv                 0      0.00%     62.00% # Class of executed instruction
system.cpu06.op_class::SimdFloatMisc                0      0.00%     62.00% # Class of executed instruction
system.cpu06.op_class::SimdFloatMult                0      0.00%     62.00% # Class of executed instruction
system.cpu06.op_class::SimdFloatMultAcc             0      0.00%     62.00% # Class of executed instruction
system.cpu06.op_class::SimdFloatSqrt                0      0.00%     62.00% # Class of executed instruction
system.cpu06.op_class::SimdAes                      0      0.00%     62.00% # Class of executed instruction
system.cpu06.op_class::SimdAesMix                   0      0.00%     62.00% # Class of executed instruction
system.cpu06.op_class::SimdSha1Hash                 0      0.00%     62.00% # Class of executed instruction
system.cpu06.op_class::SimdSha1Hash2                0      0.00%     62.00% # Class of executed instruction
system.cpu06.op_class::SimdSha256Hash               0      0.00%     62.00% # Class of executed instruction
system.cpu06.op_class::SimdSha256Hash2              0      0.00%     62.00% # Class of executed instruction
system.cpu06.op_class::SimdShaSigma2                0      0.00%     62.00% # Class of executed instruction
system.cpu06.op_class::SimdShaSigma3                0      0.00%     62.00% # Class of executed instruction
system.cpu06.op_class::MemRead                    318     23.19%     85.19% # Class of executed instruction
system.cpu06.op_class::MemWrite                   191     13.93%     99.12% # Class of executed instruction
system.cpu06.op_class::FloatMemRead                 0      0.00%     99.12% # Class of executed instruction
system.cpu06.op_class::FloatMemWrite               12      0.88%    100.00% # Class of executed instruction
system.cpu06.op_class::IprAccess                    0      0.00%    100.00% # Class of executed instruction
system.cpu06.op_class::InstPrefetch                 0      0.00%    100.00% # Class of executed instruction
system.cpu06.op_class::total                     1371                       # Class of executed instruction
system.cpu06.pwrStateClkGateDist::samples            1                       # Distribution of time spent in the clock gated state
system.cpu06.pwrStateClkGateDist::mean       82786500                       # Distribution of time spent in the clock gated state
system.cpu06.pwrStateClkGateDist::1000-5e+10            1    100.00%    100.00% # Distribution of time spent in the clock gated state
system.cpu06.pwrStateClkGateDist::min_value     82786500                       # Distribution of time spent in the clock gated state
[...]
system.ruby.network.int_links39.credit_link.pwrStateResidencyTicks::UNDEFINED    564402000                       # Cumulative time (in ticks) in various power states
system.ruby.network.int_links39.network_link.pwrStateResidencyTicks::UNDEFINED    564402000                       # Cumulative time (in ticks) in various power states
system.ruby.network.int_links40.credit_link.pwrStateResidencyTicks::UNDEFINED    564402000                       # Cumulative time (in ticks) in various power states
system.ruby.network.int_links40.network_link.pwrStateResidencyTicks::UNDEFINED    564402000                       # Cumulative time (in ticks) in various power states
system.ruby.network.int_links41.credit_link.pwrStateResidencyTicks::UNDEFINED    564402000                       # Cumulative time (in ticks) in various power states
system.ruby.network.int_links41.network_link.pwrStateResidencyTicks::UNDEFINED    564402000                       # Cumulative time (in ticks) in various power states
system.ruby.network.int_links42.credit_link.pwrStateResidencyTicks::UNDEFINED    564402000                       # Cumulative time (in ticks) in various power states
system.ruby.network.int_links42.network_link.pwrStateResidencyTicks::UNDEFINED    564402000                       # Cumulative time (in ticks) in various power states
system.ruby.network.int_links43.credit_link.pwrStateResidencyTicks::UNDEFINED    564402000                       # Cumulative time (in ticks) in various power states
system.ruby.network.int_links43.network_link.pwrStateResidencyTicks::UNDEFINED    564402000                       # Cumulative time (in ticks) in various power states
system.ruby.network.int_links44.credit_link.pwrStateResidencyTicks::UNDEFINED    564402000                       # Cumulative time (in ticks) in various power states
system.ruby.network.int_links44.network_link.pwrStateResidencyTicks::UNDEFINED    564402000                       # Cumulative time (in ticks) in various power states
system.ruby.network.int_links45.credit_link.pwrStateResidencyTicks::UNDEFINED    564402000                       # Cumulative time (in ticks) in various power states
system.ruby.network.int_links45.network_link.pwrStateResidencyTicks::UNDEFINED    564402000                       # Cumulative time (in ticks) in various power states
system.ruby.network.int_links46.credit_link.pwrStateResidencyTicks::UNDEFINED    564402000                       # Cumulative time (in ticks) in various power states
system.ruby.network.int_links46.network_link.pwrStateResidencyTicks::UNDEFINED    564402000                       # Cumulative time (in ticks) in various power states
system.ruby.network.int_links47.credit_link.pwrStateResidencyTicks::UNDEFINED    564402000                       # Cumulative time (in ticks) in various power states
system.ruby.network.int_links47.network_link.pwrStateResidencyTicks::UNDEFINED    564402000                       # Cumulative time (in ticks) in various power states
system.ruby.network.netifs00.pwrStateResidencyTicks::UNDEFINED    564402000                       # Cumulative time (in ticks) in various power states
system.ruby.network.netifs01.pwrStateResidencyTicks::UNDEFINED    564402000                       # Cumulative time (in ticks) in various power states
system.ruby.network.netifs02.pwrStateResidencyTicks::UNDEFINED    564402000                       # Cumulative time (in ticks) in various power states
system.ruby.network.netifs03.pwrStateResidencyTicks::UNDEFINED    564402000                       # Cumulative time (in ticks) in various power states
system.ruby.network.netifs04.pwrStateResidencyTicks::UNDEFINED    564402000                       # Cumulative time (in ticks) in various power states
system.ruby.network.netifs05.pwrStateResidencyTicks::UNDEFINED    564402000                       # Cumulative time (in ticks) in various power states
system.ruby.network.netifs06.pwrStateResidencyTicks::UNDEFINED    564402000                       # Cumulative time (in ticks) in various power states
system.ruby.network.netifs07.pwrStateResidencyTicks::UNDEFINED    564402000                       # Cumulative time (in ticks) in various power states
system.ruby.network.netifs08.pwrStateResidencyTicks::UNDEFINED    564402000                       # Cumulative time (in ticks) in various power states
system.ruby.network.netifs09.pwrStateResidencyTicks::UNDEFINED    564402000                       # Cumulative time (in ticks) in various power states
system.ruby.network.netifs10.pwrStateResidencyTicks::UNDEFINED    564402000                       # Cumulative time (in ticks) in various power states
system.ruby.network.netifs11.pwrStateResidencyTicks::UNDEFINED    564402000                       # Cumulative time (in ticks) in various power states
system.ruby.network.netifs12.pwrStateResidencyTicks::UNDEFINED    564402000                       # Cumulative time (in ticks) in various power states
system.ruby.network.netifs13.pwrStateResidencyTicks::UNDEFINED    564402000                       # Cumulative time (in ticks) in various power states
system.ruby.network.netifs14.pwrStateResidencyTicks::UNDEFINED    564402000                       # Cumulative time (in ticks) in various power states
system.ruby.network.netifs15.pwrStateResidencyTicks::UNDEFINED    564402000                       # Cumulative time (in ticks) in various power states
system.ruby.network.netifs16.pwrStateResidencyTicks::UNDEFINED    564402000                       # Cumulative time (in ticks) in various power states
system.ruby.network.netifs17.pwrStateResidencyTicks::UNDEFINED    564402000                       # Cumulative time (in ticks) in various power states
system.ruby.network.netifs18.pwrStateResidencyTicks::UNDEFINED    564402000                       # Cumulative time (in ticks) in various power states
system.ruby.network.netifs19.pwrStateResidencyTicks::UNDEFINED    564402000                       # Cumulative time (in ticks) in various power states
system.ruby.network.netifs20.pwrStateResidencyTicks::UNDEFINED    564402000                       # Cumulative time (in ticks) in various power states
system.ruby.network.netifs21.pwrStateResidencyTicks::UNDEFINED    564402000                       # Cumulative time (in ticks) in various power states
system.ruby.network.netifs22.pwrStateResidencyTicks::UNDEFINED    564402000                       # Cumulative time (in ticks) in various power states
system.ruby.network.netifs23.pwrStateResidencyTicks::UNDEFINED    564402000                       # Cumulative time (in ticks) in various power states
system.ruby.network.netifs24.pwrStateResidencyTicks::UNDEFINED    564402000                       # Cumulative time (in ticks) in various power states
system.ruby.network.netifs25.pwrStateResidencyTicks::UNDEFINED    564402000                       # Cumulative time (in ticks) in various power states
system.ruby.network.netifs26.pwrStateResidencyTicks::UNDEFINED    564402000                       # Cumulative time (in ticks) in various power states
system.ruby.network.netifs27.pwrStateResidencyTicks::UNDEFINED    564402000                       # Cumulative time (in ticks) in various power states
system.ruby.network.netifs28.pwrStateResidencyTicks::UNDEFINED    564402000                       # Cumulative time (in ticks) in various power states
system.ruby.network.netifs29.pwrStateResidencyTicks::UNDEFINED    564402000                       # Cumulative time (in ticks) in various power states
system.ruby.network.netifs30.pwrStateResidencyTicks::UNDEFINED    564402000                       # Cumulative time (in ticks) in various power states
system.ruby.network.netifs31.pwrStateResidencyTicks::UNDEFINED    564402000                       # Cumulative time (in ticks) in various power states
system.ruby.network.netifs32.pwrStateResidencyTicks::UNDEFINED    564402000                       # Cumulative time (in ticks) in various power states
system.ruby.network.netifs33.pwrStateResidencyTicks::UNDEFINED    564402000                       # Cumulative time (in ticks) in various power states
system.ruby.network.netifs34.pwrStateResidencyTicks::UNDEFINED    564402000                       # Cumulative time (in ticks) in various power states
system.ruby.network.netifs35.pwrStateResidencyTicks::UNDEFINED    564402000                       # Cumulative time (in ticks) in various power states
system.ruby.network.packet_network_latency |      238974                       |      424244                       |       84714                      
system.ruby.network.packet_queueing_latency |      120578                       |       98087                       |       15932                      
system.ruby.network.packets_injected     |       21702     33.82%     33.82% |       32680     50.93%     84.75% |        9785     15.25%    100.00%
system.ruby.network.packets_injected::total        64167                      
system.ruby.network.packets_received     |       21700     33.82%     33.82% |       32676     50.93%     84.75% |        9784     15.25%    100.00%
system.ruby.network.packets_received::total        64160                      
system.ruby.network.pwrStateResidencyTicks::UNDEFINED    564402000                       # Cumulative time (in ticks) in various power states
system.ruby.network.routers00.buffer_reads       102515                      
system.ruby.network.routers00.buffer_writes       102515                      
system.ruby.network.routers00.crossbar_activity       102515                      
system.ruby.network.routers00.pwrStateResidencyTicks::UNDEFINED    564402000                       # Cumulative time (in ticks) in various power states
system.ruby.network.routers00.sw_input_arbiter_activity       102657                      
system.ruby.network.routers00.sw_output_arbiter_activity       102515                      
system.ruby.network.routers01.buffer_reads        49215                      
system.ruby.network.routers01.buffer_writes        49215                      
system.ruby.network.routers01.crossbar_activity        49215                      
system.ruby.network.routers01.pwrStateResidencyTicks::UNDEFINED    564402000                       # Cumulative time (in ticks) in various power states
system.ruby.network.routers01.sw_input_arbiter_activity        49268                      
system.ruby.network.routers01.sw_output_arbiter_activity        49215                      
system.ruby.network.routers02.buffer_reads        35481                      
system.ruby.network.routers02.buffer_writes        35481                      
system.ruby.network.routers02.crossbar_activity        35481                      
system.ruby.network.routers02.pwrStateResidencyTicks::UNDEFINED    564402000                       # Cumulative time (in ticks) in various power states
system.ruby.network.routers02.sw_input_arbiter_activity        35536                      
system.ruby.network.routers02.sw_output_arbiter_activity        35481                      
system.ruby.network.routers03.buffer_reads        26773                      
system.ruby.network.routers03.buffer_writes        26773                      
system.ruby.network.routers03.crossbar_activity        26773                      
system.ruby.network.routers03.pwrStateResidencyTicks::UNDEFINED    564402000                       # Cumulative time (in ticks) in various power states
system.ruby.network.routers03.sw_input_arbiter_activity        26836                      
system.ruby.network.routers03.sw_output_arbiter_activity        26773                      
system.ruby.network.routers04.buffer_reads        59693                      
system.ruby.network.routers04.buffer_writes        59693                      
system.ruby.network.routers04.crossbar_activity        59693                      
system.ruby.network.routers04.pwrStateResidencyTicks::UNDEFINED    564402000                       # Cumulative time (in ticks) in various power states
system.ruby.network.routers04.sw_input_arbiter_activity        59938                      
system.ruby.network.routers04.sw_output_arbiter_activity        59693                      
system.ruby.network.routers05.buffer_reads        24765                      
system.ruby.network.routers05.buffer_writes        24765                      
system.ruby.network.routers05.crossbar_activity        24765                      
system.ruby.network.routers05.pwrStateResidencyTicks::UNDEFINED    564402000                       # Cumulative time (in ticks) in various power states
system.ruby.network.routers05.sw_input_arbiter_activity        24790                      
system.ruby.network.routers05.sw_output_arbiter_activity        24765                      
system.ruby.network.routers06.buffer_reads        21003                      
system.ruby.network.routers06.buffer_writes        21003                      
system.ruby.network.routers06.crossbar_activity        21003                      
system.ruby.network.routers06.pwrStateResidencyTicks::UNDEFINED    564402000                       # Cumulative time (in ticks) in various power states
system.ruby.network.routers06.sw_input_arbiter_activity        21033                      
system.ruby.network.routers06.sw_output_arbiter_activity        21003                      
system.ruby.network.routers07.buffer_reads        19387                      
system.ruby.network.routers07.buffer_writes        19387                      
system.ruby.network.routers07.crossbar_activity        19387                      
system.ruby.network.routers07.pwrStateResidencyTicks::UNDEFINED    564402000                       # Cumulative time (in ticks) in various power states
system.ruby.network.routers07.sw_input_arbiter_activity        19472                      
system.ruby.network.routers07.sw_output_arbiter_activity        19387                      
system.ruby.network.routers08.buffer_reads        44010                      
system.ruby.network.routers08.buffer_writes        44010                      
system.ruby.network.routers08.crossbar_activity        44010                      
system.ruby.network.routers08.pwrStateResidencyTicks::UNDEFINED    564402000                       # Cumulative time (in ticks) in various power states
system.ruby.network.routers08.sw_input_arbiter_activity        44716                      
system.ruby.network.routers08.sw_output_arbiter_activity        44010                      
system.ruby.network.routers09.buffer_reads        22486                      
system.ruby.network.routers09.buffer_writes        22486                      
system.ruby.network.routers09.crossbar_activity        22486                      
system.ruby.network.routers09.pwrStateResidencyTicks::UNDEFINED    564402000                       # Cumulative time (in ticks) in various power states
system.ruby.network.routers09.sw_input_arbiter_activity        22560                      
system.ruby.network.routers09.sw_output_arbiter_activity        22486                      
system.ruby.network.routers10.buffer_reads        23585                      
system.ruby.network.routers10.buffer_writes        23585                      
system.ruby.network.routers10.crossbar_activity        23585                      
system.ruby.network.routers10.pwrStateResidencyTicks::UNDEFINED    564402000                       # Cumulative time (in ticks) in various power states
system.ruby.network.routers10.sw_input_arbiter_activity        23717                      
system.ruby.network.routers10.sw_output_arbiter_activity        23585                      
system.ruby.network.routers11.buffer_reads        26422                      
system.ruby.network.routers11.buffer_writes        26422                      
system.ruby.network.routers11.crossbar_activity        26422                      
system.ruby.network.routers11.pwrStateResidencyTicks::UNDEFINED    564402000                       # Cumulative time (in ticks) in various power states
system.ruby.network.routers11.sw_input_arbiter_activity        27074                      
system.ruby.network.routers11.sw_output_arbiter_activity        26422                      
system.ruby.network.routers12.buffer_reads        41866                      
system.ruby.network.routers12.buffer_writes        41866                      
system.ruby.network.routers12.crossbar_activity        41865                      
system.ruby.network.routers12.pwrStateResidencyTicks::UNDEFINED    564402000                       # Cumulative time (in ticks) in various power states
system.ruby.network.routers12.sw_input_arbiter_activity        42964                      
system.ruby.network.routers12.sw_output_arbiter_activity        41865                      
system.ruby.network.routers13.buffer_reads        29245                      
system.ruby.network.routers13.buffer_writes        29245                      
system.ruby.network.routers13.crossbar_activity        29241                      
system.ruby.network.routers13.pwrStateResidencyTicks::UNDEFINED    564402000                       # Cumulative time (in ticks) in various power states
system.ruby.network.routers13.sw_input_arbiter_activity        29385                      
system.ruby.network.routers13.sw_output_arbiter_activity        29241                      
system.ruby.network.routers14.buffer_reads        26212                      
system.ruby.network.routers14.buffer_writes        26212                      
system.ruby.network.routers14.crossbar_activity        26212                      
system.ruby.network.routers14.pwrStateResidencyTicks::UNDEFINED    564402000                       # Cumulative time (in ticks) in various power states
system.ruby.network.routers14.sw_input_arbiter_activity        26300                      
system.ruby.network.routers14.sw_output_arbiter_activity        26212                      
system.ruby.network.routers15.buffer_reads        23690                      
system.ruby.network.routers15.buffer_writes        23690                      
system.ruby.network.routers15.crossbar_activity        23690                      
system.ruby.network.routers15.pwrStateResidencyTicks::UNDEFINED    564402000                       # Cumulative time (in ticks) in various power states
system.ruby.network.routers15.sw_input_arbiter_activity        23975                      
system.ruby.network.routers15.sw_output_arbiter_activity        23690                      
system.ruby.outstanding_req_hist_seqr::bucket_size            1                      
system.ruby.outstanding_req_hist_seqr::max_bucket            9                      
system.ruby.outstanding_req_hist_seqr::samples       188239                      
system.ruby.outstanding_req_hist_seqr::mean            1                      
system.ruby.outstanding_req_hist_seqr::gmean            1                      
system.ruby.outstanding_req_hist_seqr    |           0      0.00%      0.00% |      188239    100.00%    100.00% |           0      0.00%    100.00% |           0      0.00%    100.00% |           0      0.00%    100.00% |           0      0.00%    100.00% |           0      0.00%    100.00% |           0      0.00%    100.00% |           0      0.00%    100.00% |           0      0.00%    100.00%
system.ruby.outstanding_req_hist_seqr::total       188239                      
system.ruby.pwrStateResidencyTicks::UNDEFINED    564402000                       # Cumulative time (in ticks) in various power states
system.sys_port_proxy.pwrStateResidencyTicks::UNDEFINED    564402000                       # Cumulative time (in ticks) in various power states
system.voltage_domain.voltage                       1                       # Voltage in Volts

---------- End Simulation Statistics   ----------
