
---------- Begin Simulation Statistics ----------
final_tick                                  793511500                       # Number of ticks from beginning of simulation (restored from checkpoints and never reset)
host_inst_rate                                  38388                       # Simulator instruction rate (inst/s)
host_mem_usage                                5159788                       # Number of bytes of host memory used
host_op_rate                                    38475                       # Simulator op (including micro ops) rate (op/s)
host_seconds                                     4.28                       # Real time elapsed on the host
host_tick_rate                              185205542                       # Simulator tick rate (ticks/s)
sim_freq                                 1000000000000                       # Frequency of simulated ticks
sim_insts                                      164464                       # Number of instructions simulated
sim_ops                                        164846                       # Number of ops (including micro ops) simulated
sim_seconds                                  0.000794                       # Number of seconds simulated
sim_ticks                                   793511500                       # Number of ticks simulated
system.clk_domain.clock                          1000                       # Clock period in ticks
system.cpu00.Branches                           22350                       # Number of branches fetched
system.cpu00.committedInsts                    100001                       # Number of instructions committed
system.cpu00.committedOps                      100294                       # Number of ops (including micro ops) committed
system.cpu00.dtb.accesses                           0                       # DTB accesses
system.cpu00.dtb.hits                               0                       # DTB hits
system.cpu00.dtb.misses                             0                       # DTB misses
system.cpu00.dtb.pwrStateResidencyTicks::UNDEFINED    793511500                       # Cumulative time (in ticks) in various power states
system.cpu00.dtb.read_accesses                      0                       # DTB read accesses
system.cpu00.dtb.read_hits                          0                       # DTB read hits
system.cpu00.dtb.read_misses                        0                       # DTB read misses
system.cpu00.dtb.write_accesses                     0                       # DTB write accesses
system.cpu00.dtb.write_hits                         0                       # DTB write hits
system.cpu00.dtb.write_misses                       0                       # DTB write misses
system.cpu00.idle_fraction                   0.003413                       # Percentage of idle cycles
system.cpu00.itb.accesses                           0                       # DTB accesses
system.cpu00.itb.hits                               0                       # DTB hits
system.cpu00.itb.misses                             0                       # DTB misses
system.cpu00.itb.pwrStateResidencyTicks::UNDEFINED    793511500                       # Cumulative time (in ticks) in various power states
system.cpu00.itb.read_accesses                      0                       # DTB read accesses
system.cpu00.itb.read_hits                          0                       # DTB read hits
system.cpu00.itb.read_misses                        0                       # DTB read misses
system.cpu00.itb.write_accesses                     0                       # DTB write accesses
system.cpu00.itb.write_hits                         0                       # DTB write hits
system.cpu00.itb.write_misses                       0                       # DTB write misses
system.cpu00.not_idle_fraction               0.996587                       # Percentage of non-idle cycles
system.cpu00.numCycles                        1587023                       # number of cpu cycles simulated
system.cpu00.numPwrStateTransitions                 2                       # Number of power state transitions
system.cpu00.numWorkItemsCompleted                  0                       # number of work items this cpu completed
system.cpu00.numWorkItemsStarted                    0                       # number of work items this cpu started
system.cpu00.num_busy_cycles             1581606.000007                       # Number of busy cycles
system.cpu00.num_conditional_control_insts        15929                       # number of instructions that are conditional controls
system.cpu00.num_fp_alu_accesses                   12                       # Number of float alu accesses
system.cpu00.num_fp_insts                          12                       # number of float instructions
system.cpu00.num_fp_register_reads                 12                       # number of times the floating registers were read
system.cpu00.num_fp_register_writes                 0                       # number of times the floating registers were written
system.cpu00.num_func_calls                      6421                       # number of times a function call or return occured
system.cpu00.num_idle_cycles              5416.999993                       # Number of idle cycles
system.cpu00.num_int_alu_accesses               98834                       # Number of integer alu accesses
system.cpu00.num_int_insts                      98834                       # number of integer instructions
system.cpu00.num_int_register_reads            120839                       # number of times the integer registers were read
system.cpu00.num_int_register_writes            64473                       # number of times the integer registers were written
system.cpu00.num_load_insts                     20284                       # Number of load instructions
system.cpu00.num_mem_refs                       36549                       # number of memory refs
system.cpu00.num_store_insts                    16265                       # Number of store instructions
system.cpu00.num_vec_alu_accesses                   0                       # Number of vector alu accesses
system.cpu00.num_vec_insts                          0                       # number of vector instructions
system.cpu00.num_vec_register_reads                 0                       # number of times the vector registers were read
system.cpu00.num_vec_register_writes                0                       # number of times the vector registers were written
system.cpu00.op_class::No_OpClass                 860      0.86%      0.86% # Class of executed instruction
system.cpu00.op_class::IntAlu                   62922     62.69%     63.55% # Class of executed instruction
system.cpu00.op_class::IntMult                     30      0.03%     63.58% # Class of executed instruction
system.cpu00.op_class::IntDiv                       6      0.01%     63.58% # Class of executed instruction
system.cpu00.op_class::FloatAdd                     0      0.00%     63.58% # Class of executed instruction
system.cpu00.op_class::FloatCmp                     0      0.00%     63.58% # Class of executed instruction
system.cpu00.op_class::FloatCvt                     0      0.00%     63.58% # Class of executed instruction
system.cpu00.op_class::FloatMult                    0      0.00%     63.58% # Class of executed instruction
system.cpu00.op_class::FloatMultAcc                 0      0.00%     63.58% # Class of executed instruction
system.cpu00.op_class::FloatDiv                     0      0.00%     63.58% # Class of executed instruction
system.cpu00.op_class::FloatMisc                    0      0.00%     63.58% # Class of executed instruction
system.cpu00.op_class::FloatSqrt                    0      0.00%     63.58% # Class of executed instruction
system.cpu00.op_class::SimdAdd                      0      0.00%     63.58% # Class of executed instruction
system.cpu00.op_class::SimdAddAcc                   0      0.00%     63.58% # Class of executed instruction
system.cpu00.op_class::SimdAlu                      0      0.00%     63.58% # Class of executed instruction
system.cpu00.op_class::SimdCmp                      0      0.00%     63.58% # Class of executed instruction
system.cpu00.op_class::SimdCvt                      0      0.00%     63.58% # Class of executed instruction
system.cpu00.op_class::SimdMisc                     0      0.00%     63.58% # Class of executed instruction
system.cpu00.op_class::SimdMult                     0      0.00%     63.58% # Class of executed instruction
system.cpu00.op_class::SimdMultAcc                  0      0.00%     63.58% # Class of executed instruction
system.cpu00.op_class::SimdShift                    0      0.00%     63.58% # Class of executed instruction
system.cpu00.op_class::SimdShiftAcc                 0      0.00%     63.58% # Class of executed instruction
system.cpu00.op_class::SimdSqrt                     0      0.00%     63.58% # Class of executed instruction
system.cpu00.op_class::SimdFloatAdd                 0      0.00%     63.58% # Class of executed instruction
system.cpu00.op_class::SimdFloatAlu                 0      0.00%     63.58% # Class of executed instruction
system.cpu00.op_class::SimdFloatCmp                 0      0.00%     63.58% # Class of executed instruction
system.cpu00.op_class::SimdFloatCvt                 0      0.00%     63.58% # Class of executed instruction
system.cpu00.op_class::SimdFloatDiv                 0      0.00%     63.58% # Class of executed instruction
system.cpu00.op_class::SimdFloatMisc                0      0.00%     63.58% # Class of executed instruction
system.cpu00.op_class::SimdFloatMult                0      0.00%     63.58% # Class of executed instruction
system.cpu00.op_class::SimdFloatMultAcc             0      0.00%     63.58% # Class of executed instruction
system.cpu00.op_class::SimdFloatSqrt                0      0.00%     63.58% # Class of executed instruction
system.cpu00.op_class::SimdAes                      0      0.00%     63.58% # Class of executed instruction
system.cpu00.op_class::SimdAesMix                   0      0.00%     63.58% # Class of executed instruction
system.cpu00.op_class::SimdSha1Hash                 0      0.00%     63.58% # Class of executed instruction
system.cpu00.op_class::SimdSha1Hash2                0      0.00%     63.58% # Class of executed instruction
system.cpu00.op_class::SimdSha256Hash               0      0.00%     63.58% # Class of executed instruction
system.cpu00.op_class::SimdSha256Hash2              0      0.00%     63.58% # Class of executed instruction
system.cpu00.op_class::SimdShaSigma2                0      0.00%     63.58% # Class of executed instruction
system.cpu00.op_class::SimdShaSigma3                0      0.00%     63.58% # Class of executed instruction
system.cpu00.op_class::MemRead                  20569     20.49%     84.08% # Class of executed instruction
system.cpu00.op_class::MemWrite                 15968     15.91%     99.99% # Class of executed instruction
system.cpu00.op_class::FloatMemRead                 0      0.00%     99.99% # Class of executed instruction
system.cpu00.op_class::FloatMemWrite               12      0.01%    100.00% # Class of executed instruction
system.cpu00.op_class::IprAccess                    0      0.00%    100.00% # Class of executed instruction
system.cpu00.op_class::InstPrefetch                 0      0.00%    100.00% # Class of executed instruction
system.cpu00.op_class::total                   100367                       # Class of executed instruction
system.cpu00.pwrStateClkGateDist::samples            1                       # Distribution of time spent in the clock gated state
system.cpu00.pwrStateClkGateDist::mean        2708500                       # Distribution of time spent in the clock gated state
system.cpu00.pwrStateClkGateDist::1000-5e+10            1    100.00%    100.00% # Distribution of time spent in the clock gated state
system.cpu00.pwrStateClkGateDist::min_value      2708500                       # Distribution of time spent in the clock gated state
system.cpu00.pwrStateClkGateDist::max_value      2708500                       # Distribution of time spent in the clock gated state
system.cpu00.pwrStateClkGateDist::total             1                       # Distribution of time spent in the clock gated state
system.cpu00.pwrStateResidencyTicks::ON     790803000                       # Cumulative time (in ticks) in various power states
system.cpu00.pwrStateResidencyTicks::CLK_GATED      2708500                       # Cumulative time (in ticks) in various power states
system.cpu00.workload.numSyscalls                  72                       # Number of system calls
system.cpu01.Branches                             838                       # Number of branches fetched
system.cpu01.committedInsts                      4462                       # Number of instructions committed
system.cpu01.committedOps                        4468                       # Number of ops (including micro ops) committed
system.cpu01.dtb.accesses                           0                       # DTB accesses
system.cpu01.dtb.hits                               0                       # DTB hits
system.cpu01.dtb.misses                             0                       # DTB misses
system.cpu01.dtb.pwrStateResidencyTicks::UNDEFINED    793511500                       # Cumulative time (in ticks) in various power states
system.cpu01.dtb.read_accesses                      0                       # DTB read accesses
system.cpu01.dtb.read_hits                          0                       # DTB read hits
system.cpu01.dtb.read_misses                        0                       # DTB read misses
system.cpu01.dtb.write_accesses                     0                       # DTB write accesses
system.cpu01.dtb.write_hits                         0                       # DTB write hits
system.cpu01.dtb.write_misses                       0                       # DTB write misses
system.cpu01.idle_fraction                   0.982072                       # Percentage of idle cycles
system.cpu01.itb.accesses                           0                       # DTB accesses
system.cpu01.itb.hits                               0                       # DTB hits
system.cpu01.itb.misses                             0                       # DTB misses
system.cpu01.itb.pwrStateResidencyTicks::UNDEFINED    793511500                       # Cumulative time (in ticks) in various power states
system.cpu01.itb.read_accesses                      0                       # DTB read accesses
system.cpu01.itb.read_hits                          0                       # DTB read hits
system.cpu01.itb.read_misses                        0                       # DTB read misses
system.cpu01.itb.write_accesses                     0                       # DTB write accesses
system.cpu01.itb.write_hits                         0                       # DTB write hits
system.cpu01.itb.write_misses                       0                       # DTB write misses
system.cpu01.not_idle_fraction               0.017928                       # Percentage of non-idle cycles
system.cpu01.numCycles                        1587023                       # number of cpu cycles simulated
system.cpu01.numPwrStateTransitions                 2                       # Number of power state transitions
system.cpu01.numWorkItemsCompleted                  0                       # number of work items this cpu completed
system.cpu01.numWorkItemsStarted                    0                       # number of work items this cpu started
system.cpu01.num_busy_cycles             28452.001964                       # Number of busy cycles
system.cpu01.num_conditional_control_insts          438                       # number of instructions that are conditional controls
system.cpu01.num_fp_alu_accesses                   12                       # Number of float alu accesses
system.cpu01.num_fp_insts                          12                       # number of float instructions
system.cpu01.num_fp_register_reads                 12                       # number of times the floating registers were read
system.cpu01.num_fp_register_writes                 0                       # number of times the floating registers were written
system.cpu01.num_func_calls                       400                       # number of times a function call or return occured
system.cpu01.num_idle_cycles             1558570.998036                       # Number of idle cycles
system.cpu01.num_int_alu_accesses                4390                       # Number of integer alu accesses
system.cpu01.num_int_insts                       4390                       # number of integer instructions
system.cpu01.num_int_register_reads              5060                       # number of times the integer registers were read
system.cpu01.num_int_register_writes             3251                       # number of times the integer registers were written
system.cpu01.num_load_insts                      1089                       # Number of load instructions
system.cpu01.num_mem_refs                        1621                       # number of memory refs
system.cpu01.num_store_insts                      532                       # Number of store instructions
system.cpu01.num_vec_alu_accesses                   0                       # Number of vector alu accesses
system.cpu01.num_vec_insts                          0                       # number of vector instructions
system.cpu01.num_vec_register_reads                 0                       # number of times the vector registers were read
system.cpu01.num_vec_register_writes                0                       # number of times the vector registers were written
system.cpu01.op_class::No_OpClass                  10      0.22%      0.22% # Class of executed instruction
system.cpu01.op_class::IntAlu                    2836     63.45%     63.67% # Class of executed instruction
system.cpu01.op_class::IntMult                      1      0.02%     63.69% # Class of executed instruction
system.cpu01.op_class::IntDiv                       2      0.04%     63.74% # Class of executed instruction
system.cpu01.op_class::FloatAdd                     0      0.00%     63.74% # Class of executed instruction
system.cpu01.op_class::FloatCmp                     0      0.00%     63.74% # Class of executed instruction
system.cpu01.op_class::FloatCvt                     0      0.00%     63.74% # Class of executed instruction
system.cpu01.op_class::FloatMult                    0      0.00%     63.74% # Class of executed instruction
system.cpu01.op_class::FloatMultAcc                 0      0.00%     63.74% # Class of executed instruction
system.cpu01.op_class::FloatDiv                     0      0.00%     63.74% # Class of executed instruction
system.cpu01.op_class::FloatMisc                    0      0.00%     63.74% # Class of executed instruction
system.cpu01.op_class::FloatSqrt                    0      0.00%     63.74% # Class of executed instruction
system.cpu01.op_class::SimdAdd                      0      0.00%     63.74% # Class of executed instruction
system.cpu01.op_class::SimdAddAcc                   0      0.00%     63.74% # Class of executed instruction
system.cpu01.op_class::SimdAlu                      0      0.00%     63.74% # Class of executed instruction
system.cpu01.op_class::SimdCmp                      0      0.00%     63.74% # Class of executed instruction
system.cpu01.op_class::SimdCvt                      0      0.00%     63.74% # Class of executed instruction
system.cpu01.op_class::SimdMisc                     0      0.00%     63.74% # Class of executed instruction
system.cpu01.op_class::SimdMult                     0      0.00%     63.74% # Class of executed instruction
system.cpu01.op_class::SimdMultAcc                  0      0.00%     63.74% # Class of executed instruction
system.cpu01.op_class::SimdShift                    0      0.00%     63.74% # Class of executed instruction
system.cpu01.op_class::SimdShiftAcc                 0      0.00%     63.74% # Class of executed instruction
system.cpu01.op_class::SimdSqrt                     0      0.00%     63.74% # Class of executed instruction
system.cpu01.op_class::SimdFloatAdd                 0      0.00%     63.74% # Class of executed instruction
system.cpu01.op_class::SimdFloatAlu                 0      0.00%     63.74% # Class of executed instruction
system.cpu01.op_class::SimdFloatCmp                 0      0.00%     63.74% # Class of executed instruction
system.cpu01.op_class::SimdFloatCvt                 0      0.00%     63.74% # Class of executed instruction
system.cpu01.op_class::SimdFloatDiv                 0      0.00%     63.74% # Class of executed instruction
system.cpu01.op_class::SimdFloatMisc                0      0.00%     63.74% # Class of executed instruction
system.cpu01.op_class::SimdFloatMult                0      0.00%     63.74% # Class of executed instruction
system.cpu01.op_class::SimdFloatMultAcc             0      0.00%     63.74% # Class of executed instruction
system.cpu01.op_class::SimdFloatSqrt                0      0.00%     63.74% # Class of executed instruction
system.cpu01.op_class::SimdAes                      0      0.00%     63.74% # Class of executed instruction
system.cpu01.op_class::SimdAesMix                   0      0.00%     63.74% # Class of executed instruction
system.cpu01.op_class::SimdSha1Hash                 0      0.00%     63.74% # Class of executed instruction
system.cpu01.op_class::SimdSha1Hash2                0      0.00%     63.74% # Class of executed instruction
system.cpu01.op_class::SimdSha256Hash               0      0.00%     63.74% # Class of executed instruction
system.cpu01.op_class::SimdSha256Hash2              0      0.00%     63.74% # Class of executed instruction
system.cpu01.op_class::SimdShaSigma2                0      0.00%     63.74% # Class of executed instruction
system.cpu01.op_class::SimdShaSigma3                0      0.00%     63.74% # Class of executed instruction
system.cpu01.op_class::MemRead                   1093     24.45%     88.19% # Class of executed instruction
system.cpu01.op_class::MemWrite                   516     11.54%     99.73% # Class of executed instruction
system.cpu01.op_class::FloatMemRead                 0      0.00%     99.73% # Class of executed instruction
system.cpu01.op_class::FloatMemWrite               12      0.27%    100.00% # Class of executed instruction
system.cpu01.op_class::IprAccess                    0      0.00%    100.00% # Class of executed instruction
system.cpu01.op_class::InstPrefetch                 0      0.00%    100.00% # Class of executed instruction
system.cpu01.op_class::total                     4470                       # Class of executed instruction
system.cpu01.pwrStateClkGateDist::samples            1                       # Distribution of time spent in the clock gated state
system.cpu01.pwrStateClkGateDist::mean      165017500                       # Distribution of time spent in the clock gated state
system.cpu01.pwrStateClkGateDist::1000-5e+10            1    100.00%    100.00% # Distribution of time spent in the clock gated state
system.cpu01.pwrStateClkGateDist::min_value    165017500                       # Distribution of time spent in the clock gated state
system.cpu01.pwrStateClkGateDist::max_value    165017500                       # Distribution of time spent in the clock gated state
system.cpu01.pwrStateClkGateDist::total             1                       # Distribution of time spent in the clock gated state
system.cpu01.pwrStateResidencyTicks::ON     628494000                       # Cumulative time (in ticks) in various power states
system.cpu01.pwrStateResidencyTicks::CLK_GATED    165017500                       # Cumulative time (in ticks) in various power states
system.cpu02.Branches                             836                       # Number of branches fetched
system.cpu02.committedInsts                      4448                       # Number of instructions committed
system.cpu02.committedOps                        4454                       # Number of ops (including micro ops) committed
system.cpu02.dtb.accesses                           0                       # DTB accesses
system.cpu02.dtb.hits                               0                       # DTB hits
system.cpu02.dtb.misses                             0                       # DTB misses
system.cpu02.dtb.pwrStateResidencyTicks::UNDEFINED    793511500                       # Cumulative time (in ticks) in various power states
system.cpu02.dtb.read_accesses                      0                       # DTB read accesses
system.cpu02.dtb.read_hits                          0                       # DTB read hits
system.cpu02.dtb.read_misses                        0                       # DTB read misses
system.cpu02.dtb.write_accesses                     0                       # DTB write accesses
system.cpu02.dtb.write_hits                         0                       # DTB write hits
system.cpu02.dtb.write_misses                       0                       # DTB write misses
system.cpu02.idle_fraction                   0.984318                       # Percentage of idle cycles
system.cpu02.itb.accesses                           0                       # DTB accesses
system.cpu02.itb.hits                               0                       # DTB hits
system.cpu02.itb.misses                             0                       # DTB misses
system.cpu02.itb.pwrStateResidencyTicks::UNDEFINED    793511500                       # Cumulative time (in ticks) in various power states
system.cpu02.itb.read_accesses                      0                       # DTB read accesses
system.cpu02.itb.read_hits                          0                       # DTB read hits
system.cpu02.itb.read_misses                        0                       # DTB read misses
system.cpu02.itb.write_accesses                     0                       # DTB write accesses
system.cpu02.itb.write_hits                         0                       # DTB write hits
system.cpu02.itb.write_misses                       0                       # DTB write misses
system.cpu02.not_idle_fraction               0.015682                       # Percentage of non-idle cycles
system.cpu02.numCycles                        1587023                       # number of cpu cycles simulated
system.cpu02.numPwrStateTransitions                 2                       # Number of power state transitions
system.cpu02.numWorkItemsCompleted                  0                       # number of work items this cpu completed
system.cpu02.numWorkItemsStarted                    0                       # number of work items this cpu started
system.cpu02.num_busy_cycles             24887.001969                       # Number of busy cycles
system.cpu02.num_conditional_control_insts          437                       # number of instructions that are conditional controls
system.cpu02.num_fp_alu_accesses                   12                       # Number of float alu accesses
system.cpu02.num_fp_insts                          12                       # number of float instructions
system.cpu02.num_fp_register_reads                 12                       # number of times the floating registers were read
system.cpu02.num_fp_register_writes                 0                       # number of times the floating registers were written
system.cpu02.num_func_calls                       399                       # number of times a function call or return occured
system.cpu02.num_idle_cycles             1562135.998031                       # Number of idle cycles
system.cpu02.num_int_alu_accesses                4376                       # Number of integer alu accesses
system.cpu02.num_int_insts                       4376                       # number of integer instructions
system.cpu02.num_int_register_reads              5044                       # number of times the integer registers were read
system.cpu02.num_int_register_writes             3240                       # number of times the integer registers were written
system.cpu02.num_load_insts                      1084                       # Number of load instructions
system.cpu02.num_mem_refs                        1614                       # number of memory refs
system.cpu02.num_store_insts                      530                       # Number of store instructions
system.cpu02.num_vec_alu_accesses                   0                       # Number of vector alu accesses
system.cpu02.num_vec_insts                          0                       # number of vector instructions
system.cpu02.num_vec_register_reads                 0                       # number of times the vector registers were read
system.cpu02.num_vec_register_writes                0                       # number of times the vector registers were written
system.cpu02.op_class::No_OpClass                  10      0.22%      0.22% # Class of executed instruction
system.cpu02.op_class::IntAlu                    2829     63.49%     63.71% # Class of executed instruction
system.cpu02.op_class::IntMult                      1      0.02%     63.73% # Class of executed instruction
system.cpu02.op_class::IntDiv                       2      0.04%     63.78% # Class of executed instruction
system.cpu02.op_class::FloatAdd                     0      0.00%     63.78% # Class of executed instruction
system.cpu02.op_class::FloatCmp                     0      0.00%     63.78% # Class of executed instruction
system.cpu02.op_class::FloatCvt                     0      0.00%     63.78% # Class of executed instruction
system.cpu02.op_class::FloatMult                    0      0.00%     63.78% # Class of executed instruction
system.cpu02.op_class::FloatMultAcc                 0      0.00%     63.78% # Class of executed instruction
system.cpu02.op_class::FloatDiv                     0      0.00%     63.78% # Class of executed instruction
system.cpu02.op_class::FloatMisc                    0      0.00%     63.78% # Class of executed instruction
system.cpu02.op_class::FloatSqrt                    0      0.00%     63.78% # Class of executed instruction
system.cpu02.op_class::SimdAdd                      0      0.00%     63.78% # Class of executed instruction
system.cpu02.op_class::SimdAddAcc                   0      0.00%     63.78% # Class of executed instruction
system.cpu02.op_class::SimdAlu                      0      0.00%     63.78% # Class of executed instruction
system.cpu02.op_class::SimdCmp                      0      0.00%     63.78% # Class of executed instruction
system.cpu02.op_class::SimdCvt                      0      0.00%     63.78% # Class of executed instruction
system.cpu02.op_class::SimdMisc                     0      0.00%     63.78% # Class of executed instruction
system.cpu02.op_class::SimdMult                     0      0.00%     63.78% # Class of executed instruction
system.cpu02.op_class::SimdMultAcc                  0      0.00%     63.78% # Class of executed instruction
system.cpu02.op_class::SimdShift                    0      0.00%     63.78% # Class of executed instruction
system.cpu02.op_class::SimdShiftAcc                 0      0.00%     63.78% # Class of executed instruction
system.cpu02.op_class::SimdSqrt                     0      0.00%     63.78% # Class of executed instruction
system.cpu02.op_class::SimdFloatAdd                 0      0.00%     63.78% # Class of executed instruction
system.cpu02.op_class::SimdFloatAlu                 0      0.00%     63.78% # Class of executed instruction
system.cpu02.op_class::SimdFloatCmp                 0      0.00%     63.78% # Class of executed instruction
system.cpu02.op_class::SimdFloatCvt                 0      0.00%     63.78% # Class of executed instruction
system.cpu02.op_class::SimdFloatDiv                 0      0.00%     63.78% # Class of executed instruction
system.cpu02.op_class::SimdFloatMisc                0      0.00%     63.78% # Class of executed instruction
system.cpu02.op_class::SimdFloatMult                0      0.00%     63.78% # Class of executed instruction
system.cpu02.op_class::SimdFloatMultAcc             0      0.00%     63.78% # Class of executed instruction
system.cpu02.op_class::SimdFloatSqrt                0      0.00%     63.78% # Class of executed instruction
system.cpu02.op_class::SimdAes                      0      0.00%     63.78% # Class of executed instruction
system.cpu02.op_class::SimdAesMix                   0      0.00%     63.78% # Class of executed instruction
system.cpu02.op_class::SimdSha1Hash                 0      0.00%     63.78% # Class of executed instruction
system.cpu02.op_class::SimdSha1Hash2                0      0.00%     63.78% # Class of executed instruction
system.cpu02.op_class::SimdSha256Hash               0      0.00%     63.78% # Class of executed instruction
system.cpu02.op_class::SimdSha256Hash2              0      0.00%     63.78% # Class of executed instruction
system.cpu02.op_class::SimdShaSigma2                0      0.00%     63.78% # Class of executed instruction
system.cpu02.op_class::SimdShaSigma3                0      0.00%     63.78% # Class of executed instruction
system.cpu02.op_class::MemRead                   1088     24.42%     88.20% # Class of executed instruction
system.cpu02.op_class::MemWrite                   514     11.54%     99.73% # Class of executed instruction
system.cpu02.op_class::FloatMemRead                 0      0.00%     99.73% # Class of executed instruction
system.cpu02.op_class::FloatMemWrite               12      0.27%    100.00% # Class of executed instruction
system.cpu02.op_class::IprAccess                    0      0.00%    100.00% # Class of executed instruction
system.cpu02.op_class::InstPrefetch                 0      0.00%    100.00% # Class of executed instruction
system.cpu02.op_class::total                     4456                       # Class of executed instruction
system.cpu02.pwrStateClkGateDist::samples            1                       # Distribution of time spent in the clock gated state
system.cpu02.pwrStateClkGateDist::mean      155095000                       # Distribution of time spent in the clock gated state
system.cpu02.pwrStateClkGateDist::1000-5e+10            1    100.00%    100.00% # Distribution of time spent in the clock gated state
system.cpu02.pwrStateClkGateDist::min_value    155095000                       # Distribution of time spent in the clock gated state
system.cpu02.pwrStateClkGateDist::max_value    155095000                       # Distribution of time spent in the clock gated state
system.cpu02.pwrStateClkGateDist::total             1                       # Distribution of time spent in the clock gated state
system.cpu02.pwrStateResidencyTicks::ON     638416500                       # Cumulative time (in ticks) in various power states
system.cpu02.pwrStateResidencyTicks::CLK_GATED    155095000                       # Cumulative time (in ticks) in various power states
system.cpu03.Branches                             837                       # Number of branches fetched
system.cpu03.committedInsts                      4423                       # Number of instructions committed
system.cpu03.committedOps                        4429                       # Number of ops (including micro ops) committed
system.cpu03.dtb.accesses                           0                       # DTB accesses
system.cpu03.dtb.hits                               0                       # DTB hits
system.cpu03.dtb.misses                             0                       # DTB misses
system.cpu03.dtb.pwrStateResidencyTicks::UNDEFINED    793511500                       # Cumulative time (in ticks) in various power states
system.cpu03.dtb.read_accesses                      0                       # DTB read accesses
system.cpu03.dtb.read_hits                          0                       # DTB read hits
system.cpu03.dtb.read_misses                        0                       # DTB read misses
system.cpu03.dtb.write_accesses                     0                       # DTB write accesses
system.cpu03.dtb.write_hits                         0                       # DTB write hits
system.cpu03.dtb.write_misses                       0                       # DTB write misses
system.cpu03.idle_fraction                   0.984292                       # Percentage of idle cycles
system.cpu03.itb.accesses                           0                       # DTB accesses
system.cpu03.itb.hits                               0                       # DTB hits
system.cpu03.itb.misses                             0                       # DTB misses
system.cpu03.itb.pwrStateResidencyTicks::UNDEFINED    793511500                       # Cumulative time (in ticks) in various power states
system.cpu03.itb.read_accesses                      0                       # DTB read accesses
system.cpu03.itb.read_hits                          0                       # DTB read hits
system.cpu03.itb.read_misses                        0                       # DTB read misses
system.cpu03.itb.write_accesses                     0                       # DTB write accesses
system.cpu03.itb.write_hits                         0                       # DTB write hits
system.cpu03.itb.write_misses                       0                       # DTB write misses
system.cpu03.not_idle_fraction               0.015708                       # Percentage of non-idle cycles
system.cpu03.numCycles                        1587023                       # number of cpu cycles simulated
system.cpu03.numPwrStateTransitions                 2                       # Number of power state transitions
system.cpu03.numWorkItemsCompleted                  0                       # number of work items this cpu completed
system.cpu03.numWorkItemsStarted                    0                       # number of work items this cpu started
system.cpu03.num_busy_cycles             24929.001969                       # Number of busy cycles
system.cpu03.num_conditional_control_insts          425                       # number of instructions that are conditional controls
system.cpu03.num_fp_alu_accesses                   12                       # Number of float alu accesses
system.cpu03.num_fp_insts                          12                       # number of float instructions
system.cpu03.num_fp_register_reads                 12                       # number of times the floating registers were read
system.cpu03.num_fp_register_writes                 0                       # number of times the floating registers were written
system.cpu03.num_func_calls                       412                       # number of times a function call or return occured
system.cpu03.num_idle_cycles             1562093.998031                       # Number of idle cycles
system.cpu03.num_int_alu_accesses                4337                       # Number of integer alu accesses
system.cpu03.num_int_insts                       4337                       # number of integer instructions
system.cpu03.num_int_register_reads              5004                       # number of times the integer registers were read
system.cpu03.num_int_register_writes             3214                       # number of times the integer registers were written
system.cpu03.num_load_insts                      1078                       # Number of load instructions
system.cpu03.num_mem_refs                        1604                       # number of memory refs
system.cpu03.num_store_insts                      526                       # Number of store instructions
system.cpu03.num_vec_alu_accesses                   0                       # Number of vector alu accesses
system.cpu03.num_vec_insts                          0                       # number of vector instructions
system.cpu03.num_vec_register_reads                 0                       # number of times the vector registers were read
system.cpu03.num_vec_register_writes                0                       # number of times the vector registers were written
system.cpu03.op_class::No_OpClass                  10      0.23%      0.23% # Class of executed instruction
system.cpu03.op_class::IntAlu                    2814     63.51%     63.73% # Class of executed instruction
system.cpu03.op_class::IntMult                      1      0.02%     63.76% # Class of executed instruction
system.cpu03.op_class::IntDiv                       2      0.05%     63.80% # Class of executed instruction
system.cpu03.op_class::FloatAdd                     0      0.00%     63.80% # Class of executed instruction
system.cpu03.op_class::FloatCmp                     0      0.00%     63.80% # Class of executed instruction
system.cpu03.op_class::FloatCvt                     0      0.00%     63.80% # Class of executed instruction
system.cpu03.op_class::FloatMult                    0      0.00%     63.80% # Class of executed instruction
system.cpu03.op_class::FloatMultAcc                 0      0.00%     63.80% # Class of executed instruction
system.cpu03.op_class::FloatDiv                     0      0.00%     63.80% # Class of executed instruction
system.cpu03.op_class::FloatMisc                    0      0.00%     63.80% # Class of executed instruction
system.cpu03.op_class::FloatSqrt                    0      0.00%     63.80% # Class of executed instruction
system.cpu03.op_class::SimdAdd                      0      0.00%     63.80% # Class of executed instruction
system.cpu03.op_class::SimdAddAcc                   0      0.00%     63.80% # Class of executed instruction
system.cpu03.op_class::SimdAlu                      0      0.00%     63.80% # Class of executed instruction
system.cpu03.op_class::SimdCmp                      0      0.00%     63.80% # Class of executed instruction
system.cpu03.op_class::SimdCvt                      0      0.00%     63.80% # Class of executed instruction
system.cpu03.op_class::SimdMisc                     0      0.00%     63.80% # Class of executed instruction
system.cpu03.op_class::SimdMult                     0      0.00%     63.80% # Class of executed instruction
system.cpu03.op_class::SimdMultAcc                  0      0.00%     63.80% # Class of executed instruction
system.cpu03.op_class::SimdShift                    0      0.00%     63.80% # Class of executed instruction
system.cpu03.op_class::SimdShiftAcc                 0      0.00%     63.80% # Class of executed instruction
system.cpu03.op_class::SimdSqrt                     0      0.00%     63.80% # Class of executed instruction
system.cpu03.op_class::SimdFloatAdd                 0      0.00%     63.80% # Class of executed instruction
system.cpu03.op_class::SimdFloatAlu                 0      0.00%     63.80% # Class of executed instruction
system.cpu03.op_class::SimdFloatCmp                 0      0.00%     63.80% # Class of executed instruction
system.cpu03.op_class::SimdFloatCvt                 0      0.00%     63.80% # Class of executed instruction
system.cpu03.op_class::SimdFloatDiv                 0      0.00%     63.80% # Class of executed instruction
system.cpu03.op_class::SimdFloatMisc                0      0.00%     63.80% # Class of executed instruction
system.cpu03.op_class::SimdFloatMult                0      0.00%     63.80% # Class of executed instruction
system.cpu03.op_class::SimdFloatMultAcc             0      0.00%     63.80% # Class of executed instruction
system.cpu03.op_class::SimdFloatSqrt                0      0.00%     63.80% # Class of executed instruction
system.cpu03.op_class::SimdAes                      0      0.00%     63.80% # Class of executed instruction
system.cpu03.op_class::SimdAesMix                   0      0.00%     63.80% # Class of executed instruction
system.cpu03.op_class::SimdSha1Hash                 0      0.00%     63.80% # Class of executed instruction
system.cpu03.op_class::SimdSha1Hash2                0      0.00%     63.80% # Class of executed instruction
system.cpu03.op_class::SimdSha256Hash               0      0.00%     63.80% # Class of executed instruction
system.cpu03.op_class::SimdSha256Hash2              0      0.00%     63.80% # Class of executed instruction
system.cpu03.op_class::SimdShaSigma2                0      0.00%     63.80% # Class of executed instruction
system.cpu03.op_class::SimdShaSigma3                0      0.00%     63.80% # Class of executed instruction
system.cpu03.op_class::MemRead                   1082     24.42%     88.22% # Class of executed instruction
system.cpu03.op_class::MemWrite                   510     11.51%     99.73% # Class of executed instruction
system.cpu03.op_class::FloatMemRead                 0      0.00%     99.73% # Class of executed instruction
system.cpu03.op_class::FloatMemWrite               12      0.27%    100.00% # Class of executed instruction
system.cpu03.op_class::IprAccess                    0      0.00%    100.00% # Class of executed instruction
system.cpu03.op_class::InstPrefetch                 0      0.00%    100.00% # Class of executed instruction
system.cpu03.op_class::total                     4431                       # Class of executed instruction
system.cpu03.pwrStateClkGateDist::samples            1                       # Distribution of time spent in the clock gated state
system.cpu03.pwrStateClkGateDist::mean      143574000                       # Distribution of time spent in the clock gated state
system.cpu03.pwrStateClkGateDist::1000-5e+10            1    100.00%    100.00% # Distribution of time spent in the clock gated state
system.cpu03.pwrStateClkGateDist::min_value    143574000                       # Distribution of time spent in the clock gated state
system.cpu03.pwrStateClkGateDist::max_value    143574000                       # Distribution of time spent in the clock gated state
system.cpu03.pwrStateClkGateDist::total             1                       # Distribution of time spent in the clock gated state
system.cpu03.pwrStateResidencyTicks::ON     649937500                       # Cumulative time (in ticks) in various power states
system.cpu03.pwrStateResidencyTicks::CLK_GATED    143574000                       # Cumulative time (in ticks) in various power states
system.cpu04.Branches                             814                       # Number of branches fetched
system.cpu04.committedInsts                      4298                       # Number of instructions committed
system.cpu04.committedOps                        4304                       # Number of ops (including micro ops) committed
system.cpu04.dtb.accesses                           0                       # DTB accesses
system.cpu04.dtb.hits                               0                       # DTB hits
system.cpu04.dtb.misses                             0                       # DTB misses
system.cpu04.dtb.pwrStateResidencyTicks::UNDEFINED    793511500                       # Cumulative time (in ticks) in various power states
system.cpu04.dtb.read_accesses                      0                       # DTB read accesses
system.cpu04.dtb.read_hits                          0                       # DTB read hits
system.cpu04.dtb.read_misses                        0                       # DTB read misses
system.cpu04.dtb.write_accesses                     0                       # DTB write accesses
system.cpu04.dtb.write_hits                         0                       # DTB write hits
system.cpu04.dtb.write_misses                       0                       # DTB write misses
system.cpu04.idle_fraction                   0.984518                       # Percentage of idle cycles
system.cpu04.itb.accesses                           0                       # DTB accesses
system.cpu04.itb.hits                               0                       # DTB hits
system.cpu04.itb.misses                             0                       # DTB misses
system.cpu04.itb.pwrStateResidencyTicks::UNDEFINED    793511500                       # Cumulative time (in ticks) in various power states
system.cpu04.itb.read_accesses                      0                       # DTB read accesses
system.cpu04.itb.read_hits                          0                       # DTB read hits
system.cpu04.itb.read_misses                        0                       # DTB read misses
system.cpu04.itb.write_accesses                     0                       # DTB write accesses
system.cpu04.itb.write_hits                         0                       # DTB write hits
system.cpu04.itb.write_misses                       0                       # DTB write misses
system.cpu04.not_idle_fraction               0.015482                       # Percentage of non-idle cycles
system.cpu04.numCycles                        1587023                       # number of cpu cycles simulated
system.cpu04.numPwrStateTransitions                 2                       # Number of power state transitions
system.cpu04.numWorkItemsCompleted                  0                       # number of work items this cpu completed
system.cpu04.numWorkItemsStarted                    0                       # number of work items this cpu started
system.cpu04.num_busy_cycles             24570.001969                       # Number of busy cycles
system.cpu04.num_conditional_control_insts          412                       # number of instructions that are conditional controls
system.cpu04.num_fp_alu_accesses                   12                       # Number of float alu accesses
system.cpu04.num_fp_insts                          12                       # number of float instructions
system.cpu04.num_fp_register_reads                 12                       # number of times the floating registers were read
system.cpu04.num_fp_register_writes                 0                       # number of times the floating registers were written
system.cpu04.num_func_calls                       402                       # number of times a function call or return occured
system.cpu04.num_idle_cycles             1562452.998031                       # Number of idle cycles
system.cpu04.num_int_alu_accesses                4213                       # Number of integer alu accesses
system.cpu04.num_int_insts                       4213                       # number of integer instructions
system.cpu04.num_int_register_reads              4860                       # number of times the integer registers were read
system.cpu04.num_int_register_writes             3122                       # number of times the integer registers were written
system.cpu04.num_load_insts                      1046                       # Number of load instructions
system.cpu04.num_mem_refs                        1558                       # number of memory refs
system.cpu04.num_store_insts                      512                       # Number of store instructions
system.cpu04.num_vec_alu_accesses                   0                       # Number of vector alu accesses
system.cpu04.num_vec_insts                          0                       # number of vector instructions
system.cpu04.num_vec_register_reads                 0                       # number of times the vector registers were read
system.cpu04.num_vec_register_writes                0                       # number of times the vector registers were written
system.cpu04.op_class::No_OpClass                  10      0.23%      0.23% # Class of executed instruction
system.cpu04.op_class::IntAlu                    2735     63.52%     63.75% # Class of executed instruction
system.cpu04.op_class::IntMult                      1      0.02%     63.77% # Class of executed instruction
system.cpu04.op_class::IntDiv                       2      0.05%     63.82% # Class of executed instruction
system.cpu04.op_class::FloatAdd                     0      0.00%     63.82% # Class of executed instruction
system.cpu04.op_class::FloatCmp                     0      0.00%     63.82% # Class of executed instruction
system.cpu04.op_class::FloatCvt                     0      0.00%     63.82% # Class of executed instruction
system.cpu04.op_class::FloatMult                    0      0.00%     63.82% # Class of executed instruction
system.cpu04.op_class::FloatMultAcc                 0      0.00%     63.82% # Class of executed instruction
system.cpu04.op_class::FloatDiv                     0      0.00%     63.82% # Class of executed instruction
system.cpu04.op_class::FloatMisc                    0      0.00%     63.82% # Class of executed instruction
system.cpu04.op_class::FloatSqrt                    0      0.00%     63.82% # Class of executed instruction
system.cpu04.op_class::SimdAdd                      0      0.00%     63.82% # Class of executed instruction
system.cpu04.op_class::SimdAddAcc                   0      0.00%     63.82% # Class of executed instruction
system.cpu04.op_class::SimdAlu                      0      0.00%     63.82% # Class of executed instruction
system.cpu04.op_class::SimdCmp                      0      0.00%     63.82% # Class of executed instruction
system.cpu04.op_class::SimdCvt                      0      0.00%     63.82% # Class of executed instruction
system.cpu04.op_class::SimdMisc                     0      0.00%     63.82% # Class of executed instruction
system.cpu04.op_class::SimdMult                     0      0.00%     63.82% # Class of executed instruction
system.cpu04.op_class::SimdMultAcc                  0      0.00%     63.82% # Class of executed instruction
system.cpu04.op_class::SimdShift                    0      0.00%     63.82% # Class of executed instruction
system.cpu04.op_class::SimdShiftAcc                 0      0.00%     63.82% # Class of executed instruction
system.cpu04.op_class::SimdSqrt                     0      0.00%     63.82% # Class of executed instruction
system.cpu04.op_class::SimdFloatAdd                 0      0.00%     63.82% # Class of executed instruction
system.cpu04.op_class::SimdFloatAlu                 0      0.00%     63.82% # Class of executed instruction
system.cpu04.op_class::SimdFloatCmp                 0      0.00%     63.82% # Class of executed instruction
system.cpu04.op_class::SimdFloatCvt                 0      0.00%     63.82% # Class of executed instruction
system.cpu04.op_class::SimdFloatDiv                 0      0.00%     63.82% # Class of executed instruction
system.cpu04.op_class::SimdFloatMisc                0      0.00%     63.82% # Class of executed instruction
system.cpu04.op_class::SimdFloatMult                0      0.00%     63.82% # Class of executed instruction
system.cpu04.op_class::SimdFloatMultAcc             0      0.00%     63.82% # Class of executed instruction
system.cpu04.op_class::SimdFloatSqrt                0      0.00%     63.82% # Class of executed instruction
system.cpu04.op_class::SimdAes                      0      0.00%     63.82% # Class of executed instruction
system.cpu04.op_class::SimdAesMix                   0      0.00%     63.82% # Class of executed instruction
system.cpu04.op_class::SimdSha1Hash                 0      0.00%     63.82% # Class of executed instruction
system.cpu04.op_class::SimdSha1Hash2                0      0.00%     63.82% # Class of executed instruction
system.cpu04.op_class::SimdSha256Hash               0      0.00%     63.82% # Class of executed instruction
system.cpu04.op_class::SimdSha256Hash2              0      0.00%     63.82% # Class of executed instruction
system.cpu04.op_class::SimdShaSigma2                0      0.00%     63.82% # Class of executed instruction
system.cpu04.op_class::SimdShaSigma3                0      0.00%     63.82% # Class of executed instruction
system.cpu04.op_class::MemRead                   1050     24.38%     88.20% # Class of executed instruction
system.cpu04.op_class::MemWrite                   496     11.52%     99.72% # Class of executed instruction
system.cpu04.op_class::FloatMemRead                 0      0.00%     99.72% # Class of executed instruction
system.cpu04.op_class::FloatMemWrite               12      0.28%    100.00% # Class of executed instruction
system.cpu04.op_class::IprAccess                    0      0.00%    100.00% # Class of executed instruction
system.cpu04.op_class::InstPrefetch                 0      0.00%    100.00% # Class of executed instruction
system.cpu04.op_class::total                     4306                       # Class of executed instruction
system.cpu04.pwrStateClkGateDist::samples            1                       # Distribution of time spent in the clock gated state
system.cpu04.pwrStateClkGateDist::mean      130256500                       # Distribution of time spent in the clock gated state
system.cpu04.pwrStateClkGateDist::1000-5e+10            1    100.00%    100.00% # Distribution of time spent in the clock gated state
system.cpu04.pwrStateClkGateDist::min_value    130256500                       # Distribution of time spent in the clock gated state
system.cpu04.pwrStateClkGateDist::max_value    130256500                       # Distribution of time spent in the clock gated state
system.cpu04.pwrStateClkGateDist::total             1                       # Distribution of time spent in the clock gated state
system.cpu04.pwrStateResidencyTicks::ON     663255000                       # Cumulative time (in ticks) in various power states
system.cpu04.pwrStateResidencyTicks::CLK_GATED    130256500                       # Cumulative time (in ticks) in various power states
system.cpu05.Branches                             825                       # Number of branches fetched
system.cpu05.committedInsts                      4361                       # Number of instructions committed
system.cpu05.committedOps                        4367                       # Number of ops (including micro ops) committed
system.cpu05.dtb.accesses                           0                       # DTB accesses
system.cpu05.dtb.hits                               0                       # DTB hits
system.cpu05.dtb.misses                             0                       # DTB misses
system.cpu05.dtb.pwrStateResidencyTicks::UNDEFINED    793511500                       # Cumulative time (in ticks) in various power states
system.cpu05.dtb.read_accesses                      0                       # DTB read accesses
system.cpu05.dtb.read_hits                          0                       # DTB read hits
system.cpu05.dtb.read_misses                        0                       # DTB read misses
system.cpu05.dtb.write_accesses                     0                       # DTB write accesses
system.cpu05.dtb.write_hits                         0                       # DTB write hits
system.cpu05.dtb.write_misses                       0                       # DTB write misses
system.cpu05.idle_fraction                   0.984796                       # Percentage of idle cycles
system.cpu05.itb.accesses                           0                       # DTB accesses
system.cpu05.itb.hits                               0                       # DTB hits
system.cpu05.itb.misses                             0                       # DTB misses
system.cpu05.itb.pwrStateResidencyTicks::UNDEFINED    793511500                       # Cumulative time (in ticks) in various power states
system.cpu05.itb.read_accesses                      0                       # DTB read accesses
system.cpu05.itb.read_hits                          0                       # DTB read hits
system.cpu05.itb.read_misses                        0                       # DTB read misses
system.cpu05.itb.write_accesses                     0                       # DTB write accesses
system.cpu05.itb.write_hits                         0                       # DTB write hits
system.cpu05.itb.write_misses                       0                       # DTB write misses
system.cpu05.not_idle_fraction               0.015204                       # Percentage of non-idle cycles
system.cpu05.numCycles                        1587023                       # number of cpu cycles simulated
system.cpu05.numPwrStateTransitions                 2                       # Number of power state transitions
system.cpu05.numWorkItemsCompleted                  0                       # number of work items this cpu completed
system.cpu05.numWorkItemsStarted                    0                       # number of work items this cpu started
system.cpu05.num_busy_cycles             24129.001970                       # Number of busy cycles
system.cpu05.num_conditional_control_insts          420                       # number of instructions that are conditional controls
system.cpu05.num_fp_alu_accesses                   12                       # Number of float alu accesses
system.cpu05.num_fp_insts                          12                       # number of float instructions
system.cpu05.num_fp_register_reads                 12                       # number of times the floating registers were read
system.cpu05.num_fp_register_writes                 0                       # number of times the floating registers were written
system.cpu05.num_func_calls                       405                       # number of times a function call or return occured
system.cpu05.num_idle_cycles             1562893.998030                       # Number of idle cycles
system.cpu05.num_int_alu_accesses                4277                       # Number of integer alu accesses
system.cpu05.num_int_insts                       4277                       # number of integer instructions
system.cpu05.num_int_register_reads              4935                       # number of times the integer registers were read
system.cpu05.num_int_register_writes             3169                       # number of times the integer registers were written
system.cpu05.num_load_insts                      1065                       # Number of load instructions
system.cpu05.num_mem_refs                        1584                       # number of memory refs
system.cpu05.num_store_insts                      519                       # Number of store instructions
system.cpu05.num_vec_alu_accesses                   0                       # Number of vector alu accesses
system.cpu05.num_vec_insts                          0                       # number of vector instructions
system.cpu05.num_vec_register_reads                 0                       # number of times the vector registers were read
system.cpu05.num_vec_register_writes                0                       # number of times the vector registers were written
system.cpu05.op_class::No_OpClass                  10      0.23%      0.23% # Class of executed instruction
system.cpu05.op_class::IntAlu                    2772     63.45%     63.68% # Class of executed instruction
system.cpu05.op_class::IntMult                      1      0.02%     63.70% # Class of executed instruction
system.cpu05.op_class::IntDiv                       2      0.05%     63.74% # Class of executed instruction
system.cpu05.op_class::FloatAdd                     0      0.00%     63.74% # Class of executed instruction
system.cpu05.op_class::FloatCmp                     0      0.00%     63.74% # Class of executed instruction
system.cpu05.op_class::FloatCvt                     0      0.00%     63.74% # Class of executed instruction
system.cpu05.op_class::FloatMult                    0      0.00%     63.74% # Class of executed instruction
system.cpu05.op_class::FloatMultAcc                 0      0.00%     63.74% # Class of executed instruction
system.cpu05.op_class::FloatDiv                     0      0.00%     63.74% # Class of executed instruction
system.cpu05.op_class::FloatMisc                    0      0.00%     63.74% # Class of executed instruction
system.cpu05.op_class::FloatSqrt                    0      0.00%     63.74% # Class of executed instruction
system.cpu05.op_class::SimdAdd                      0      0.00%     63.74% # Class of executed instruction
system.cpu05.op_class::SimdAddAcc                   0      0.00%     63.74% # Class of executed instruction
system.cpu05.op_class::SimdAlu                      0      0.00%     63.74% # Class of executed instruction
system.cpu05.op_class::SimdCmp                      0      0.00%     63.74% # Class of executed instruction
system.cpu05.op_class::SimdCvt                      0      0.00%     63.74% # Class of executed instruction
system.cpu05.op_class::SimdMisc                     0      0.00%     63.74% # Class of executed instruction
system.cpu05.op_class::SimdMult                     0      0.00%     63.74% # Class of executed instruction
system.cpu05.op_class::SimdMultAcc                  0      0.00%     63.74% # Class of executed instruction
system.cpu05.op_class::SimdShift                    0      0.00%     63.74% # Class of executed instruction
system.cpu05.op_class::SimdShiftAcc                 0      0.00%     63.74% # Class of executed instruction
system.cpu05.op_class::SimdSqrt                     0      0.00%     63.74% # Class of executed instruction
system.cpu05.op_class::SimdFloatAdd                 0      0.00%     63.74% # Class of executed instruction
system.cpu05.op_class::SimdFloatAlu                 0      0.00%     63.74% # Class of executed instruction
system.cpu05.op_class::SimdFloatCmp                 0      0.00%     63.74% # Class of executed instruction
system.cpu05.op_class::SimdFloatCvt                 0      0.00%     63.74% # Class of executed instruction
system.cpu05.op_class::SimdFloatDiv                 0      0.00%     63.74% # Class of executed instruction
system.cpu05.op_class::SimdFloatMisc                0      0.00%     63.74% # Class of executed instruction
system.cpu05.op_class::SimdFloatMult                0      0.00%     63.74% # Class of executed instruction
system.cpu05.op_class::SimdFloatMultAcc             0      0.00%     63.74% # Class of executed instruction
system.cpu05.op_class::SimdFloatSqrt                0      0.00%     63.74% # Class of executed instruction
system.cpu05.op_class::SimdAes                      0      0.00%     63.74% # Class of executed instruction
system.cpu05.op_class::SimdAesMix                   0      0.00%     63.74% # Class of executed instruction
system.cpu05.op_class::SimdSha1Hash                 0      0.00%     63.74% # Class of executed instruction
system.cpu05.op_class::SimdSha1Hash2                0      0.00%     63.74% # Class of executed instruction
system.cpu05.op_class::SimdSha256Hash               0      0.00%     63.74% # Class of executed instruction
system.cpu05.op_class::SimdSha256Hash2              0      0.00%     63.74% # Class of executed instruction
system.cpu05.op_class::SimdShaSigma2                0      0.00%     63.74% # Class of executed instruction
system.cpu05.op_class::SimdShaSigma3                0      0.00%     63.74% # Class of executed instruction
system.cpu05.op_class::MemRead                   1069     24.47%     88.21% # Class of executed instruction
system.cpu05.op_class::MemWrite                   503     11.51%     99.73% # Class of executed instruction
system.cpu05.op_class::FloatMemRead                 0      0.00%     99.73% # Class of executed instruction
system.cpu05.op_class::FloatMemWrite               12      0.27%    100.00% # Class of executed instruction
system.cpu05.op_class::IprAccess                    0      0.00%    100.00% # Class of executed instruction
system.cpu05.op_class::InstPrefetch                 0      0.00%    100.00% # Class of executed instruction
system.cpu05.op_class::total                     4369                       # Class of executed instruction
system.cpu05.pwrStateClkGateDist::samples            1                       # Distribution of time spent in the clock gated state
system.cpu05.pwrStateClkGateDist::mean      119044500                       # Distribution of time spent in the clock gated state
system.cpu05.pwrStateClkGateDist::1000-5e+10            1    100.00%    100.00% # Distribution of time spent in the clock gated state
system.cpu05.pwrStateClkGateDist::min_value    119044500                       # Distribution of time spent in the clock gated state
system.cpu05.pwrStateClkGateDist::max_value    119044500                       # Distribution of time spent in the clock gated state
system.cpu05.pwrStateClkGateDist::total             1                       # Distribution of time spent in the clock gated state
system.cpu05.pwrStateResidencyTicks::ON     674467000                       # Cumulative time (in ticks) in various power states
system.cpu05.pwrStateResidencyTicks::CLK_GATED    119044500                       # Cumulative time (in ticks) in various power states
system.cpu06.Branches                             814                       # Number of branches fetched
system.cpu06.committedInsts                      4300                       # Number of instructions committed
system.cpu06.committedOps                        4306                       # Number of ops (including micro ops) committed
system.cpu06.dtb.accesses                           0                       # DTB accesses
system.cpu06.dtb.hits                               0                       # DTB hits
system.cpu06.dtb.misses                             0                       # DTB misses
system.cpu06.dtb.pwrStateResidencyTicks::UNDEFINED    793511500                       # Cumulative time (in ticks) in various power states
system.cpu06.dtb.read_accesses                      0                       # DTB read accesses
system.cpu06.dtb.read_hits                          0                       # DTB read hits
system.cpu06.dtb.read_misses                        0                       # DTB read misses
system.cpu06.dtb.write_accesses                     0                       # DTB write accesses
system.cpu06.dtb.write_hits                         0                       # DTB write hits
system.cpu06.dtb.write_misses                       0                       # DTB write misses
system.cpu06.idle_fraction                   0.984913                       # Percentage of idle cycles
system.cpu06.itb.accesses                           0                       # DTB accesses
system.cpu06.itb.hits                               0                       # DTB hits
system.cpu06.itb.misses                             0                       # DTB misses
system.cpu06.itb.pwrStateResidencyTicks::UNDEFINED    793511500                       # Cumulative time (in ticks) in various power states
system.cpu06.itb.read_accesses                      0                       # DTB read accesses
system.cpu06.itb.read_hits                          0                       # DTB read hits
system.cpu06.itb.read_misses                        0                       # DTB read misses
system.cpu06.itb.write_accesses                     0                       # DTB write accesses
system.cpu06.itb.write_hits                         0                       # DTB write hits
system.cpu06.itb.write_misses                       0                       # DTB write misses
system.cpu06.not_idle_fraction               0.015087                       # Percentage of non-idle cycles
system.cpu06.numCycles                        1587023                       # number of cpu cycles simulated
system.cpu06.numPwrStateTransitions                 2                       # Number of power state transitions
system.cpu06.numWorkItemsCompleted                  0                       # number of work items this cpu completed
system.cpu06.numWorkItemsStarted                    0                       # number of work items this cpu started
system.cpu06.num_busy_cycles             23944.001970                       # Number of busy cycles
system.cpu06.num_conditional_control_insts          412                       # number of instructions that are conditional controls
system.cpu06.num_fp_alu_accesses                   12                       # Number of float alu accesses
system.cpu06.num_fp_insts                          12                       # number of float instructions
system.cpu06.num_fp_register_reads                 12                       # number of times the floating registers were read
system.cpu06.num_fp_register_writes                 0                       # number of times the floating registers were written
system.cpu06.num_func_calls                       402                       # number of times a function call or return occured
system.cpu06.num_idle_cycles             1563078.998030                       # Number of idle cycles
system.cpu06.num_int_alu_accesses                4215                       # Number of integer alu accesses
system.cpu06.num_int_insts                       4215                       # number of integer instructions
system.cpu06.num_int_register_reads              4862                       # number of times the integer registers were read
system.cpu06.num_int_register_writes             3124                       # number of times the integer registers were written
system.cpu06.num_load_insts                      1047                       # Number of load instructions
system.cpu06.num_mem_refs                        1559                       # number of memory refs
system.cpu06.num_store_insts                      512                       # Number of store instructions
system.cpu06.num_vec_alu_accesses                   0                       # Number of vector alu accesses
system.cpu06.num_vec_insts                          0                       # number of vector instructions
system.cpu06.num_vec_register_reads                 0                       # number of times the vector registers were read
system.cpu06.num_vec_register_writes                0                       # number of times the vector registers were written
system.cpu06.op_class::No_OpClass                  10      0.23%      0.23% # Class of executed instruction
system.cpu06.op_class::IntAlu                    2736     63.51%     63.74% # Class of executed instruction
system.cpu06.op_class::IntMult                      1      0.02%     63.77% # Class of executed instruction
system.cpu06.op_class::IntDiv                       2      0.05%     63.81% # Class of executed instruction
system.cpu06.op_class::FloatAdd                     0      0.00%     63.81% # Class of executed instruction
system.cpu06.op_class::FloatCmp                     0      0.00%     63.81% # Class of executed instruction
system.cpu06.op_class::FloatCvt                     0      0.00%     63.81% # Class of executed instruction
system.cpu06.op_class::FloatMult                    0      0.00%     63.81% # Class of executed instruction
system.cpu06.op_class::FloatMultAcc                 0      0.00%     63.81% # Class of executed instruction
system.cpu06.op_class::FloatDiv                     0      0.00%     63.81% # Class of executed instruction
system.cpu06.op_class::FloatMisc                    0      0.00%     63.81% # Class of executed instruction
system.cpu06.op_class::FloatSqrt                    0      0.00%     63.81% # Class of executed instruction
system.cpu06.op_class::SimdAdd                      0      0.00%     63.81% # Class of executed instruction
system.cpu06.op_class::SimdAddAcc                   0      0.00%     63.81% # Class of executed instruction
system.cpu06.op_class::SimdAlu                      0      0.00%     63.81% # Class of executed instruction
system.cpu06.op_class::SimdCmp                      0      0.00%     63.81% # Class of executed instruction
system.cpu06.op_class::SimdCvt                      0      0.00%     63.81% # Class of executed instruction
system.cpu06.op_class::SimdMisc                     0      0.00%     63.81% # Class of executed instruction
system.cpu06.op_class::SimdMult                     0      0.00%     63.81% # Class of executed instruction
system.cpu06.op_class::SimdMultAcc                  0      0.00%     63.81% # Class of executed instruction
system.cpu06.op_class::SimdShift                    0      0.00%     63.81% # Class of executed instruction
system.cpu06.op_class::SimdShiftAcc                 0      0.00%     63.81% # Class of executed instruction
system.cpu06.op_class::SimdSqrt                     0      0.00%     63.81% # Class of executed instruction
system.cpu06.op_class::SimdFloatAdd                 0      0.00%     63.81% # Class of executed instruction
system.cpu06.op_class::SimdFloatAlu                 0      0.00%     63.81% # Class of executed instruction
system.cpu06.op_class::SimdFloatCmp                 0      0.00%     63.81% # Class of executed instruction
system.cpu06.op_class::SimdFloatCvt                 0      0.00%     63.81% # Class of executed instruction
system.cpu06.op_class::SimdFloatDiv                 0      0.00%     63.81% # Class of executed instruction
system.cpu06.op_class::SimdFloatMisc                0      0.00%     63.81% # Class of executed instruction
system.cpu06.op_class::SimdFloatMult                0      0.00%     63.81% # Class of executed instruction
system.cpu06.op_class::SimdFloatMultAcc             0      0.00%     63.81% # Class of executed instruction
system.cpu06.op_class::SimdFloatSqrt                0      0.00%     63.81% # Class of executed instruction
system.cpu06.op_class::SimdAes                      0      0.00%     63.81% # Class of executed instruction
system.cpu06.op_class::SimdAesMix                   0      0.00%     63.81% # Class of executed instruction
system.cpu06.op_class::SimdSha1Hash                 0      0.00%     63.81% # Class of executed instruction
system.cpu06.op_class::SimdSha1Hash2                0      0.00%     63.81% # Class of executed instruction
system.cpu06.op_class::SimdSha256Hash               0      0.00%     63.81% # Class of executed instruction
system.cpu06.op_class::SimdSha256Hash2              0      0.00%     63.81% # Class of executed instruction
system.cpu06.op_class::SimdShaSigma2                0      0.00%     63.81% # Class of executed instruction
system.cpu06.op_class::SimdShaSigma3                0      0.00%     63.81% # Class of executed instruction
system.cpu06.op_class::MemRead                   1051     24.40%     88.21% # Class of executed instruction
system.cpu06.op_class::MemWrite                   496     11.51%     99.72% # Class of executed instruction
system.cpu06.op_class::FloatMemRead                 0      0.00%     99.72% # Class of executed instruction
system.cpu06.op_class::FloatMemWrite               12      0.28%    100.00% # Class of executed instruction
system.cpu06.op_class::IprAccess                    0      0.00%    100.00% # Class of executed instruction
system.cpu06.op_class::InstPrefetch                 0      0.00%    100.00% # Class of executed instruction
system.cpu06.op_class::total                     4308                       # Class of executed instruction
system.cpu06.pwrStateClkGateDist::samples            1                       # Distribution of time spent in the clock gated state
system.cpu06.pwrStateClkGateDist::mean      107622000                       # Distribution of time spent in the clock gated state
system.cpu06.pwrStateClkGateDist::1000-5e+10            1    100.00%    100.00% # Distribution of time spent in the clock gated state
system.cpu06.pwrStateClkGateDist::min_value    107622000                       # Distribution of time spent in the clock gated state
[...]
system.ruby.network.int_links39.credit_link.pwrStateResidencyTicks::UNDEFINED    793511500                       # Cumulative time (in ticks) in various power states
system.ruby.network.int_links39.network_link.pwrStateResidencyTicks::UNDEFINED    793511500                       # Cumulative time (in ticks) in various power states
system.ruby.network.int_links40.credit_link.pwrStateResidencyTicks::UNDEFINED    793511500                       # Cumulative time (in ticks) in various power states
system.ruby.network.int_links40.network_link.pwrStateResidencyTicks::UNDEFINED    793511500                       # Cumulative time (in ticks) in various power states
system.ruby.network.int_links41.credit_link.pwrStateResidencyTicks::UNDEFINED    793511500                       # Cumulative time (in ticks) in various power states
system.ruby.network.int_links41.network_link.pwrStateResidencyTicks::UNDEFINED    793511500                       # Cumulative time (in ticks) in various power states
system.ruby.network.int_links42.credit_link.pwrStateResidencyTicks::UNDEFINED    793511500                       # Cumulative time (in ticks) in various power states
system.ruby.network.int_links42.network_link.pwrStateResidencyTicks::UNDEFINED    793511500                       # Cumulative time (in ticks) in various power states
system.ruby.network.int_links43.credit_link.pwrStateResidencyTicks::UNDEFINED    793511500                       # Cumulative time (in ticks) in various power states
system.ruby.network.int_links43.network_link.pwrStateResidencyTicks::UNDEFINED    793511500                       # Cumulative time (in ticks) in various power states
system.ruby.network.int_links44.credit_link.pwrStateResidencyTicks::UNDEFINED    793511500                       # Cumulative time (in ticks) in various power states
system.ruby.network.int_links44.network_link.pwrStateResidencyTicks::UNDEFINED    793511500                       # Cumulative time (in ticks) in various power states
system.ruby.network.int_links45.credit_link.pwrStateResidencyTicks::UNDEFINED    793511500                       # Cumulative time (in ticks) in various power states
system.ruby.network.int_links45.network_link.pwrStateResidencyTicks::UNDEFINED    793511500                       # Cumulative time (in ticks) in various power states
system.ruby.network.int_links46.credit_link.pwrStateResidencyTicks::UNDEFINED    793511500                       # Cumulative time (in ticks) in various power states
system.ruby.network.int_links46.network_link.pwrStateResidencyTicks::UNDEFINED    793511500                       # Cumulative time (in ticks) in various power states
system.ruby.network.int_links47.credit_link.pwrStateResidencyTicks::UNDEFINED    793511500                       # Cumulative time (in ticks) in various power states
system.ruby.network.int_links47.network_link.pwrStateResidencyTicks::UNDEFINED    793511500                       # Cumulative time (in ticks) in various power states
system.ruby.network.netifs00.pwrStateResidencyTicks::UNDEFINED    793511500                       # Cumulative time (in ticks) in various power states
system.ruby.network.netifs01.pwrStateResidencyTicks::UNDEFINED    793511500                       # Cumulative time (in ticks) in various power states
system.ruby.network.netifs02.pwrStateResidencyTicks::UNDEFINED    793511500                       # Cumulative time (in ticks) in various power states
system.ruby.network.netifs03.pwrStateResidencyTicks::UNDEFINED    793511500                       # Cumulative time (in ticks) in various power states
system.ruby.network.netifs04.pwrStateResidencyTicks::UNDEFINED    793511500                       # Cumulative time (in ticks) in various power states
system.ruby.network.netifs05.pwrStateResidencyTicks::UNDEFINED    793511500                       # Cumulative time (in ticks) in various power states
system.ruby.network.netifs06.pwrStateResidencyTicks::UNDEFINED    793511500                       # Cumulative time (in ticks) in various power states
system.ruby.network.netifs07.pwrStateResidencyTicks::UNDEFINED    793511500                       # Cumulative time (in ticks) in various power states
system.ruby.network.netifs08.pwrStateResidencyTicks::UNDEFINED    793511500                       # Cumulative time (in ticks) in various power states
system.ruby.network.netifs09.pwrStateResidencyTicks::UNDEFINED    793511500                       # Cumulative time (in ticks) in various power states
system.ruby.network.netifs10.pwrStateResidencyTicks::UNDEFINED    793511500                       # Cumulative time (in ticks) in various power states
system.ruby.network.netifs11.pwrStateResidencyTicks::UNDEFINED    793511500                       # Cumulative time (in ticks) in various power states
system.ruby.network.netifs12.pwrStateResidencyTicks::UNDEFINED    793511500                       # Cumulative time (in ticks) in various power states
system.ruby.network.netifs13.pwrStateResidencyTicks::UNDEFINED    793511500                       # Cumulative time (in ticks) in various power states
system.ruby.network.netifs14.pwrStateResidencyTicks::UNDEFINED    793511500                       # Cumulative time (in ticks) in various power states
system.ruby.network.netifs15.pwrStateResidencyTicks::UNDEFINED    793511500                       # Cumulative time (in ticks) in various power states
system.ruby.network.netifs16.pwrStateResidencyTicks::UNDEFINED    793511500                       # Cumulative time (in ticks) in various power states
system.ruby.network.netifs17.pwrStateResidencyTicks::UNDEFINED    793511500                       # Cumulative time (in ticks) in various power states
system.ruby.network.netifs18.pwrStateResidencyTicks::UNDEFINED    793511500                       # Cumulative time (in ticks) in various power states
system.ruby.network.netifs19.pwrStateResidencyTicks::UNDEFINED    793511500                       # Cumulative time (in ticks) in various power states
system.ruby.network.netifs20.pwrStateResidencyTicks::UNDEFINED    793511500                       # Cumulative time (in ticks) in various power states
system.ruby.network.netifs21.pwrStateResidencyTicks::UNDEFINED    793511500                       # Cumulative time (in ticks) in various power states
system.ruby.network.netifs22.pwrStateResidencyTicks::UNDEFINED    793511500                       # Cumulative time (in ticks) in various power states
system.ruby.network.netifs23.pwrStateResidencyTicks::UNDEFINED    793511500                       # Cumulative time (in ticks) in various power states
system.ruby.network.netifs24.pwrStateResidencyTicks::UNDEFINED    793511500                       # Cumulative time (in ticks) in various power states
system.ruby.network.netifs25.pwrStateResidencyTicks::UNDEFINED    793511500                       # Cumulative time (in ticks) in various power states
system.ruby.network.netifs26.pwrStateResidencyTicks::UNDEFINED    793511500                       # Cumulative time (in ticks) in various power states
system.ruby.network.netifs27.pwrStateResidencyTicks::UNDEFINED    793511500                       # Cumulative time (in ticks) in various power states
system.ruby.network.netifs28.pwrStateResidencyTicks::UNDEFINED    793511500                       # Cumulative time (in ticks) in various power states
system.ruby.network.netifs29.pwrStateResidencyTicks::UNDEFINED    793511500                       # Cumulative time (in ticks) in various power states
system.ruby.network.netifs30.pwrStateResidencyTicks::UNDEFINED    793511500                       # Cumulative time (in ticks) in various power states
system.ruby.network.netifs31.pwrStateResidencyTicks::UNDEFINED    793511500                       # Cumulative time (in ticks) in various power states
system.ruby.network.netifs32.pwrStateResidencyTicks::UNDEFINED    793511500                       # Cumulative time (in ticks) in various power states
system.ruby.network.netifs33.pwrStateResidencyTicks::UNDEFINED    793511500                       # Cumulative time (in ticks) in various power states
system.ruby.network.netifs34.pwrStateResidencyTicks::UNDEFINED    793511500                       # Cumulative time (in ticks) in various power states
system.ruby.network.netifs35.pwrStateResidencyTicks::UNDEFINED    793511500                       # Cumulative time (in ticks) in various power states
system.ruby.network.packet_network_latency |      566684                       |      602191                       |      152683                      
system.ruby.network.packet_queueing_latency |      188568                       |       35644                       |        6782                      
system.ruby.network.packets_injected     |       19834     42.73%     42.73% |       20022     43.13%     85.86% |        6562     14.14%    100.00%
system.ruby.network.packets_injected::total        46418                      
system.ruby.network.packets_received     |       19834     42.73%     42.73% |       20022     43.13%     85.86% |        6562     14.14%    100.00%
system.ruby.network.packets_received::total        46418                      
system.ruby.network.pwrStateResidencyTicks::UNDEFINED    793511500                       # Cumulative time (in ticks) in various power states
system.ruby.network.routers00.buffer_reads        94912                      
system.ruby.network.routers00.buffer_writes        94912                      
system.ruby.network.routers00.crossbar_activity        94912                      
system.ruby.network.routers00.pwrStateResidencyTicks::UNDEFINED    793511500                       # Cumulative time (in ticks) in various power states
system.ruby.network.routers00.sw_input_arbiter_activity        94937                      
system.ruby.network.routers00.sw_output_arbiter_activity        94912                      
system.ruby.network.routers01.buffer_reads        38574                      
system.ruby.network.routers01.buffer_writes        38574                      
system.ruby.network.routers01.crossbar_activity        38574                      
system.ruby.network.routers01.pwrStateResidencyTicks::UNDEFINED    793511500                       # Cumulative time (in ticks) in various power states
system.ruby.network.routers01.sw_input_arbiter_activity        38594                      
system.ruby.network.routers01.sw_output_arbiter_activity        38574                      
system.ruby.network.routers02.buffer_reads        24903                      
system.ruby.network.routers02.buffer_writes        24903                      
system.ruby.network.routers02.crossbar_activity        24903                      
system.ruby.network.routers02.pwrStateResidencyTicks::UNDEFINED    793511500                       # Cumulative time (in ticks) in various power states
system.ruby.network.routers02.sw_input_arbiter_activity        24920                      
system.ruby.network.routers02.sw_output_arbiter_activity        24903                      
system.ruby.network.routers03.buffer_reads        15408                      
system.ruby.network.routers03.buffer_writes        15408                      
system.ruby.network.routers03.crossbar_activity        15408                      
system.ruby.network.routers03.pwrStateResidencyTicks::UNDEFINED    793511500                       # Cumulative time (in ticks) in various power states
system.ruby.network.routers03.sw_input_arbiter_activity        15412                      
system.ruby.network.routers03.sw_output_arbiter_activity        15408                      
system.ruby.network.routers04.buffer_reads        56780                      
system.ruby.network.routers04.buffer_writes        56780                      
system.ruby.network.routers04.crossbar_activity        56780                      
system.ruby.network.routers04.pwrStateResidencyTicks::UNDEFINED    793511500                       # Cumulative time (in ticks) in various power states
system.ruby.network.routers04.sw_input_arbiter_activity        56785                      
system.ruby.network.routers04.sw_output_arbiter_activity        56780                      
system.ruby.network.routers05.buffer_reads        18397                      
system.ruby.network.routers05.buffer_writes        18397                      
system.ruby.network.routers05.crossbar_activity        18397                      
system.ruby.network.routers05.pwrStateResidencyTicks::UNDEFINED    793511500                       # Cumulative time (in ticks) in various power states
system.ruby.network.routers05.sw_input_arbiter_activity        18404                      
system.ruby.network.routers05.sw_output_arbiter_activity        18397                      
system.ruby.network.routers06.buffer_reads        15003                      
system.ruby.network.routers06.buffer_writes        15003                      
system.ruby.network.routers06.crossbar_activity        15003                      
system.ruby.network.routers06.pwrStateResidencyTicks::UNDEFINED    793511500                       # Cumulative time (in ticks) in various power states
system.ruby.network.routers06.sw_input_arbiter_activity        15016                      
system.ruby.network.routers06.sw_output_arbiter_activity        15003                      
system.ruby.network.routers07.buffer_reads        11773                      
system.ruby.network.routers07.buffer_writes        11773                      
system.ruby.network.routers07.crossbar_activity        11773                      
system.ruby.network.routers07.pwrStateResidencyTicks::UNDEFINED    793511500                       # Cumulative time (in ticks) in various power states
system.ruby.network.routers07.sw_input_arbiter_activity        11782                      
system.ruby.network.routers07.sw_output_arbiter_activity        11773                      
system.ruby.network.routers08.buffer_reads        38704                      
system.ruby.network.routers08.buffer_writes        38704                      
system.ruby.network.routers08.crossbar_activity        38704                      
system.ruby.network.routers08.pwrStateResidencyTicks::UNDEFINED    793511500                       # Cumulative time (in ticks) in various power states
system.ruby.network.routers08.sw_input_arbiter_activity        38709                      
system.ruby.network.routers08.sw_output_arbiter_activity        38704                      
system.ruby.network.routers09.buffer_reads        16189                      
system.ruby.network.routers09.buffer_writes        16189                      
system.ruby.network.routers09.crossbar_activity        16189                      
system.ruby.network.routers09.pwrStateResidencyTicks::UNDEFINED    793511500                       # Cumulative time (in ticks) in various power states
system.ruby.network.routers09.sw_input_arbiter_activity        16199                      
system.ruby.network.routers09.sw_output_arbiter_activity        16189                      
system.ruby.network.routers10.buffer_reads        15154                      
system.ruby.network.routers10.buffer_writes        15154                      
system.ruby.network.routers10.crossbar_activity        15154                      
system.ruby.network.routers10.pwrStateResidencyTicks::UNDEFINED    793511500                       # Cumulative time (in ticks) in various power states
system.ruby.network.routers10.sw_input_arbiter_activity        15160                      
system.ruby.network.routers10.sw_output_arbiter_activity        15154                      
system.ruby.network.routers11.buffer_reads        11185                      
system.ruby.network.routers11.buffer_writes        11185                      
system.ruby.network.routers11.crossbar_activity        11185                      
system.ruby.network.routers11.pwrStateResidencyTicks::UNDEFINED    793511500                       # Cumulative time (in ticks) in various power states
system.ruby.network.routers11.sw_input_arbiter_activity        11191                      
system.ruby.network.routers11.sw_output_arbiter_activity        11185                      
system.ruby.network.routers12.buffer_reads        28592                      
system.ruby.network.routers12.buffer_writes        28592                      
system.ruby.network.routers12.crossbar_activity        28592                      
system.ruby.network.routers12.pwrStateResidencyTicks::UNDEFINED    793511500                       # Cumulative time (in ticks) in various power states
system.ruby.network.routers12.sw_input_arbiter_activity        28593                      
system.ruby.network.routers12.sw_output_arbiter_activity        28592                      
system.ruby.network.routers13.buffer_reads        18449                      
system.ruby.network.routers13.buffer_writes        18449                      
system.ruby.network.routers13.crossbar_activity        18449                      
system.ruby.network.routers13.pwrStateResidencyTicks::UNDEFINED    793511500                       # Cumulative time (in ticks) in various power states
system.ruby.network.routers13.sw_input_arbiter_activity        18452                      
system.ruby.network.routers13.sw_output_arbiter_activity        18449                      
system.ruby.network.routers14.buffer_reads        14289                      
system.ruby.network.routers14.buffer_writes        14289                      
system.ruby.network.routers14.crossbar_activity        14289                      
system.ruby.network.routers14.pwrStateResidencyTicks::UNDEFINED    793511500                       # Cumulative time (in ticks) in various power states
system.ruby.network.routers14.sw_input_arbiter_activity        14297                      
system.ruby.network.routers14.sw_output_arbiter_activity        14289                      
system.ruby.network.routers15.buffer_reads        10011                      
system.ruby.network.routers15.buffer_writes        10011                      
system.ruby.network.routers15.crossbar_activity        10011                      
system.ruby.network.routers15.pwrStateResidencyTicks::UNDEFINED    793511500                       # Cumulative time (in ticks) in various power states
system.ruby.network.routers15.sw_input_arbiter_activity        10017                      
system.ruby.network.routers15.sw_output_arbiter_activity        10011                      
system.ruby.outstanding_req_hist_seqr::bucket_size            1                      
system.ruby.outstanding_req_hist_seqr::max_bucket            9                      
system.ruby.outstanding_req_hist_seqr::samples       254464                      
system.ruby.outstanding_req_hist_seqr::mean            1                      
system.ruby.outstanding_req_hist_seqr::gmean            1                      
system.ruby.outstanding_req_hist_seqr    |           0      0.00%      0.00% |      254464    100.00%    100.00% |           0      0.00%    100.00% |           0      0.00%    100.00% |           0      0.00%    100.00% |           0      0.00%    100.00% |           0      0.00%    100.00% |           0      0.00%    100.00% |           0      0.00%    100.00% |           0      0.00%    100.00%
system.ruby.outstanding_req_hist_seqr::total       254464                      
system.ruby.pwrStateResidencyTicks::UNDEFINED    793511500                       # Cumulative time (in ticks) in various power states
system.sys_port_proxy.pwrStateResidencyTicks::UNDEFINED    793511500                       # Cumulative time (in ticks) in various power states
system.voltage_domain.voltage                       1                       # Voltage in Volts

---------- End Simulation Statistics   ----------
