
---------- Begin Simulation Statistics ----------
final_tick                                  527994000                       # Number of ticks from beginning of simulation (restored from checkpoints and never reset)
host_inst_rate                                  17306                       # Simulator instruction rate (inst/s)
host_mem_usage                                5159720                       # Number of bytes of host memory used
host_op_rate                                    17358                       # Simulator op (including micro ops) rate (op/s)
host_seconds                                     7.18                       # Real time elapsed on the host
host_tick_rate                               73534721                       # Simulator tick rate (ticks/s)
sim_freq                                 1000000000000                       # Frequency of simulated ticks
sim_insts                                      124255                       # Number of instructions simulated
sim_ops                                        124637                       # Number of ops (including micro ops) simulated
sim_seconds                                  0.000528                       # Number of seconds simulated
sim_ticks                                   527994000                       # Number of ticks simulated
system.clk_domain.clock                          1000                       # Clock period in ticks
system.cpu00.Branches                           22352                       # Number of branches fetched
system.cpu00.committedInsts                    100000                       # Number of instructions committed
system.cpu00.committedOps                      100293                       # Number of ops (including micro ops) committed
system.cpu00.dtb.accesses                           0                       # DTB accesses
system.cpu00.dtb.hits                               0                       # DTB hits
system.cpu00.dtb.misses                             0                       # DTB misses
system.cpu00.dtb.pwrStateResidencyTicks::UNDEFINED    527994000                       # Cumulative time (in ticks) in various power states
system.cpu00.dtb.read_accesses                      0                       # DTB read accesses
system.cpu00.dtb.read_hits                          0                       # DTB read hits
system.cpu00.dtb.read_misses                        0                       # DTB read misses
system.cpu00.dtb.write_accesses                     0                       # DTB write accesses
system.cpu00.dtb.write_hits                         0                       # DTB write hits
system.cpu00.dtb.write_misses                       0                       # DTB write misses
system.cpu00.idle_fraction                   0.004575                       # Percentage of idle cycles
system.cpu00.itb.accesses                           0                       # DTB accesses
system.cpu00.itb.hits                               0                       # DTB hits
system.cpu00.itb.misses                             0                       # DTB misses
system.cpu00.itb.pwrStateResidencyTicks::UNDEFINED    527994000                       # Cumulative time (in ticks) in various power states
system.cpu00.itb.read_accesses                      0                       # DTB read accesses
system.cpu00.itb.read_hits                          0                       # DTB read hits
system.cpu00.itb.read_misses                        0                       # DTB read misses
system.cpu00.itb.write_accesses                     0                       # DTB write accesses
system.cpu00.itb.write_hits                         0                       # DTB write hits
system.cpu00.itb.write_misses                       0                       # DTB write misses
system.cpu00.not_idle_fraction               0.995425                       # Percentage of non-idle cycles
system.cpu00.numCycles                        1055988                       # number of cpu cycles simulated
system.cpu00.numPwrStateTransitions                 2                       # Number of power state transitions
system.cpu00.numWorkItemsCompleted                  0                       # number of work items this cpu completed
system.cpu00.numWorkItemsStarted                    0                       # number of work items this cpu started
system.cpu00.num_busy_cycles             1051157.000009                       # Number of busy cycles
system.cpu00.num_conditional_control_insts        15940                       # number of instructions that are conditional controls
system.cpu00.num_fp_alu_accesses                   12                       # Number of float alu accesses
system.cpu00.num_fp_insts                          12                       # number of float instructions
system.cpu00.num_fp_register_reads                 12                       # number of times the floating registers were read
system.cpu00.num_fp_register_writes                 0                       # number of times the floating registers were written
system.cpu00.num_func_calls                      6412                       # number of times a function call or return occured
system.cpu00.num_idle_cycles              4830.999991                       # Number of idle cycles
system.cpu00.num_int_alu_accesses               98836                       # Number of integer alu accesses
system.cpu00.num_int_insts                      98836                       # number of integer instructions
system.cpu00.num_int_register_reads            120856                       # number of times the integer registers were read
system.cpu00.num_int_register_writes            64472                       # number of times the integer registers were written
system.cpu00.num_load_insts                     20286                       # Number of load instructions
system.cpu00.num_mem_refs                       36545                       # number of memory refs
system.cpu00.num_store_insts                    16259                       # Number of store instructions
system.cpu00.num_vec_alu_accesses                   0                       # Number of vector alu accesses
system.cpu00.num_vec_insts                          0                       # number of vector instructions
system.cpu00.num_vec_register_reads                 0                       # number of times the vector registers were read
system.cpu00.num_vec_register_writes                0                       # number of times the vector registers were written
system.cpu00.op_class::No_OpClass                 859      0.86%      0.86% # Class of executed instruction
system.cpu00.op_class::IntAlu                   62925     62.70%     63.55% # Class of executed instruction
system.cpu00.op_class::IntMult                     30      0.03%     63.58% # Class of executed instruction
system.cpu00.op_class::IntDiv                       6      0.01%     63.59% # Class of executed instruction
system.cpu00.op_class::FloatAdd                     0      0.00%     63.59% # Class of executed instruction
system.cpu00.op_class::FloatCmp                     0      0.00%     63.59% # Class of executed instruction
system.cpu00.op_class::FloatCvt                     0      0.00%     63.59% # Class of executed instruction
system.cpu00.op_class::FloatMult                    0      0.00%     63.59% # Class of executed instruction
system.cpu00.op_class::FloatMultAcc                 0      0.00%     63.59% # Class of executed instruction
system.cpu00.op_class::FloatDiv                     0      0.00%     63.59% # Class of executed instruction
system.cpu00.op_class::FloatMisc                    0      0.00%     63.59% # Class of executed instruction
system.cpu00.op_class::FloatSqrt                    0      0.00%     63.59% # Class of executed instruction
system.cpu00.op_class::SimdAdd                      0      0.00%     63.59% # Class of executed instruction
system.cpu00.op_class::SimdAddAcc                   0      0.00%     63.59% # Class of executed instruction
system.cpu00.op_class::SimdAlu                      0      0.00%     63.59% # Class of executed instruction
system.cpu00.op_class::SimdCmp                      0      0.00%     63.59% # Class of executed instruction
system.cpu00.op_class::SimdCvt                      0      0.00%     63.59% # Class of executed instruction
system.cpu00.op_class::SimdMisc                     0      0.00%     63.59% # Class of executed instruction
system.cpu00.op_class::SimdMult                     0      0.00%     63.59% # Class of executed instruction
system.cpu00.op_class::SimdMultAcc                  0      0.00%     63.59% # Class of executed instruction
system.cpu00.op_class::SimdShift                    0      0.00%     63.59% # Class of executed instruction
system.cpu00.op_class::SimdShiftAcc                 0      0.00%     63.59% # Class of executed instruction
system.cpu00.op_class::SimdSqrt                     0      0.00%     63.59% # Class of executed instruction
system.cpu00.op_class::SimdFloatAdd                 0      0.00%     63.59% # Class of executed instruction
system.cpu00.op_class::SimdFloatAlu                 0      0.00%     63.59% # Class of executed instruction
system.cpu00.op_class::SimdFloatCmp                 0      0.00%     63.59% # Class of executed instruction
system.cpu00.op_class::SimdFloatCvt                 0      0.00%     63.59% # Class of executed instruction
system.cpu00.op_class::SimdFloatDiv                 0      0.00%     63.59% # Class of executed instruction
system.cpu00.op_class::SimdFloatMisc                0      0.00%     63.59% # Class of executed instruction
system.cpu00.op_class::SimdFloatMult                0      0.00%     63.59% # Class of executed instruction
system.cpu00.op_class::SimdFloatMultAcc             0      0.00%     63.59% # Class of executed instruction
system.cpu00.op_class::SimdFloatSqrt                0      0.00%     63.59% # Class of executed instruction
system.cpu00.op_class::SimdAes                      0      0.00%     63.59% # Class of executed instruction
system.cpu00.op_class::SimdAesMix                   0      0.00%     63.59% # Class of executed instruction
system.cpu00.op_class::SimdSha1Hash                 0      0.00%     63.59% # Class of executed instruction
system.cpu00.op_class::SimdSha1Hash2                0      0.00%     63.59% # Class of executed instruction
system.cpu00.op_class::SimdSha256Hash               0      0.00%     63.59% # Class of executed instruction
system.cpu00.op_class::SimdSha256Hash2              0      0.00%     63.59% # Class of executed instruction
system.cpu00.op_class::SimdShaSigma2                0      0.00%     63.59% # Class of executed instruction
system.cpu00.op_class::SimdShaSigma3                0      0.00%     63.59% # Class of executed instruction
system.cpu00.op_class::MemRead                  20571     20.50%     84.08% # Class of executed instruction
system.cpu00.op_class::MemWrite                 15962     15.90%     99.99% # Class of executed instruction
system.cpu00.op_class::FloatMemRead                 0      0.00%     99.99% # Class of executed instruction
system.cpu00.op_class::FloatMemWrite               12      0.01%    100.00% # Class of executed instruction
system.cpu00.op_class::IprAccess                    0      0.00%    100.00% # Class of executed instruction
system.cpu00.op_class::InstPrefetch                 0      0.00%    100.00% # Class of executed instruction
system.cpu00.op_class::total                   100365                       # Class of executed instruction
system.cpu00.pwrStateClkGateDist::samples            1                       # Distribution of time spent in the clock gated state
system.cpu00.pwrStateClkGateDist::mean        2415500                       # Distribution of time spent in the clock gated state
system.cpu00.pwrStateClkGateDist::1000-5e+10            1    100.00%    100.00% # Distribution of time spent in the clock gated state
system.cpu00.pwrStateClkGateDist::min_value      2415500                       # Distribution of time spent in the clock gated state
system.cpu00.pwrStateClkGateDist::max_value      2415500                       # Distribution of time spent in the clock gated state
system.cpu00.pwrStateClkGateDist::total             1                       # Distribution of time spent in the clock gated state
system.cpu00.pwrStateResidencyTicks::ON     525578500                       # Cumulative time (in ticks) in various power states
system.cpu00.pwrStateResidencyTicks::CLK_GATED      2415500                       # Cumulative time (in ticks) in various power states
system.cpu00.workload.numSyscalls                  71                       # Number of system calls
system.cpu01.Branches                             292                       # Number of branches fetched
system.cpu01.committedInsts                      1532                       # Number of instructions committed
system.cpu01.committedOps                        1538                       # Number of ops (including micro ops) committed
system.cpu01.dtb.accesses                           0                       # DTB accesses
system.cpu01.dtb.hits                               0                       # DTB hits
system.cpu01.dtb.misses                             0                       # DTB misses
system.cpu01.dtb.pwrStateResidencyTicks::UNDEFINED    527994000                       # Cumulative time (in ticks) in various power states
system.cpu01.dtb.read_accesses                      0                       # DTB read accesses
system.cpu01.dtb.read_hits                          0                       # DTB read hits
system.cpu01.dtb.read_misses                        0                       # DTB read misses
system.cpu01.dtb.write_accesses                     0                       # DTB write accesses
system.cpu01.dtb.write_hits                         0                       # DTB write hits
system.cpu01.dtb.write_misses                       0                       # DTB write misses
system.cpu01.idle_fraction                   0.976427                       # Percentage of idle cycles
system.cpu01.itb.accesses                           0                       # DTB accesses
system.cpu01.itb.hits                               0                       # DTB hits
system.cpu01.itb.misses                             0                       # DTB misses
system.cpu01.itb.pwrStateResidencyTicks::UNDEFINED    527994000                       # Cumulative time (in ticks) in various power states
system.cpu01.itb.read_accesses                      0                       # DTB read accesses
system.cpu01.itb.read_hits                          0                       # DTB read hits
system.cpu01.itb.read_misses                        0                       # DTB read misses
system.cpu01.itb.write_accesses                     0                       # DTB write accesses
system.cpu01.itb.write_hits                         0                       # DTB write hits
system.cpu01.itb.write_misses                       0                       # DTB write misses
system.cpu01.not_idle_fraction               0.023573                       # Percentage of non-idle cycles
system.cpu01.numCycles                        1055886                       # number of cpu cycles simulated
system.cpu01.numPwrStateTransitions                 2                       # Number of power state transitions
system.cpu01.numWorkItemsCompleted                  0                       # number of work items this cpu completed
system.cpu01.numWorkItemsStarted                    0                       # number of work items this cpu started
system.cpu01.num_busy_cycles             24890.597488                       # Number of busy cycles
system.cpu01.num_conditional_control_insts          153                       # number of instructions that are conditional controls
system.cpu01.num_fp_alu_accesses                   12                       # Number of float alu accesses
system.cpu01.num_fp_insts                          12                       # number of float instructions
system.cpu01.num_fp_register_reads                 12                       # number of times the floating registers were read
system.cpu01.num_fp_register_writes                 0                       # number of times the floating registers were written
system.cpu01.num_func_calls                       139                       # number of times a function call or return occured
system.cpu01.num_idle_cycles             1030995.402512                       # Number of idle cycles
system.cpu01.num_int_alu_accesses                1509                       # Number of integer alu accesses
system.cpu01.num_int_insts                       1509                       # number of integer instructions
system.cpu01.num_int_register_reads              1752                       # number of times the integer registers were read
system.cpu01.num_int_register_writes             1080                       # number of times the integer registers were written
system.cpu01.num_load_insts                       358                       # Number of load instructions
system.cpu01.num_mem_refs                         583                       # number of memory refs
system.cpu01.num_store_insts                      225                       # Number of store instructions
system.cpu01.num_vec_alu_accesses                   0                       # Number of vector alu accesses
system.cpu01.num_vec_insts                          0                       # number of vector instructions
system.cpu01.num_vec_register_reads                 0                       # number of times the vector registers were read
system.cpu01.num_vec_register_writes                0                       # number of times the vector registers were written
system.cpu01.op_class::No_OpClass                  10      0.65%      0.65% # Class of executed instruction
system.cpu01.op_class::IntAlu                     944     61.30%     61.95% # Class of executed instruction
system.cpu01.op_class::IntMult                      1      0.06%     62.01% # Class of executed instruction
system.cpu01.op_class::IntDiv                       2      0.13%     62.14% # Class of executed instruction
system.cpu01.op_class::FloatAdd                     0      0.00%     62.14% # Class of executed instruction
system.cpu01.op_class::FloatCmp                     0      0.00%     62.14% # Class of executed instruction
system.cpu01.op_class::FloatCvt                     0      0.00%     62.14% # Class of executed instruction
system.cpu01.op_class::FloatMult                    0      0.00%     62.14% # Class of executed instruction
system.cpu01.op_class::FloatMultAcc                 0      0.00%     62.14% # Class of executed instruction
system.cpu01.op_class::FloatDiv                     0      0.00%     62.14% # Class of executed instruction
system.cpu01.op_class::FloatMisc                    0      0.00%     62.14% # Class of executed instruction
system.cpu01.op_class::FloatSqrt                    0      0.00%     62.14% # Class of executed instruction
system.cpu01.op_class::SimdAdd                      0      0.00%     62.14% # Class of executed instruction
system.cpu01.op_class::SimdAddAcc                   0      0.00%     62.14% # Class of executed instruction
system.cpu01.op_class::SimdAlu                      0      0.00%     62.14% # Class of executed instruction
system.cpu01.op_class::SimdCmp                      0      0.00%     62.14% # Class of executed instruction
system.cpu01.op_class::SimdCvt                      0      0.00%     62.14% # Class of executed instruction
system.cpu01.op_class::SimdMisc                     0      0.00%     62.14% # Class of executed instruction
system.cpu01.op_class::SimdMult                     0      0.00%     62.14% # Class of executed instruction
system.cpu01.op_class::SimdMultAcc                  0      0.00%     62.14% # Class of executed instruction
system.cpu01.op_class::SimdShift                    0      0.00%     62.14% # Class of executed instruction
system.cpu01.op_class::SimdShiftAcc                 0      0.00%     62.14% # Class of executed instruction
system.cpu01.op_class::SimdSqrt                     0      0.00%     62.14% # Class of executed instruction
system.cpu01.op_class::SimdFloatAdd                 0      0.00%     62.14% # Class of executed instruction
system.cpu01.op_class::SimdFloatAlu                 0      0.00%     62.14% # Class of executed instruction
system.cpu01.op_class::SimdFloatCmp                 0      0.00%     62.14% # Class of executed instruction
system.cpu01.op_class::SimdFloatCvt                 0      0.00%     62.14% # Class of executed instruction
system.cpu01.op_class::SimdFloatDiv                 0      0.00%     62.14% # Class of executed instruction
system.cpu01.op_class::SimdFloatMisc                0      0.00%     62.14% # Class of executed instruction
system.cpu01.op_class::SimdFloatMult                0      0.00%     62.14% # Class of executed instruction
system.cpu01.op_class::SimdFloatMultAcc             0      0.00%     62.14% # Class of executed instruction
system.cpu01.op_class::SimdFloatSqrt                0      0.00%     62.14% # Class of executed instruction
system.cpu01.op_class::SimdAes                      0      0.00%     62.14% # Class of executed instruction
system.cpu01.op_class::SimdAesMix                   0      0.00%     62.14% # Class of executed instruction
system.cpu01.op_class::SimdSha1Hash                 0      0.00%     62.14% # Class of executed instruction
system.cpu01.op_class::SimdSha1Hash2                0      0.00%     62.14% # Class of executed instruction
system.cpu01.op_class::SimdSha256Hash               0      0.00%     62.14% # Class of executed instruction
system.cpu01.op_class::SimdSha256Hash2              0      0.00%     62.14% # Class of executed instruction
system.cpu01.op_class::SimdShaSigma2                0      0.00%     62.14% # Class of executed instruction
system.cpu01.op_class::SimdShaSigma3                0      0.00%     62.14% # Class of executed instruction
system.cpu01.op_class::MemRead                    362     23.51%     85.65% # Class of executed instruction
system.cpu01.op_class::MemWrite                   209     13.57%     99.22% # Class of executed instruction
system.cpu01.op_class::FloatMemRead                 0      0.00%     99.22% # Class of executed instruction
system.cpu01.op_class::FloatMemWrite               12      0.78%    100.00% # Class of executed instruction
system.cpu01.op_class::IprAccess                    0      0.00%    100.00% # Class of executed instruction
system.cpu01.op_class::InstPrefetch                 0      0.00%    100.00% # Class of executed instruction
system.cpu01.op_class::total                     1540                       # Class of executed instruction
system.cpu01.pwrStateClkGateDist::samples            1                       # Distribution of time spent in the clock gated state
system.cpu01.pwrStateClkGateDist::mean      101542500                       # Distribution of time spent in the clock gated state
system.cpu01.pwrStateClkGateDist::1000-5e+10            1    100.00%    100.00% # Distribution of time spent in the clock gated state
system.cpu01.pwrStateClkGateDist::min_value    101542500                       # Distribution of time spent in the clock gated state
system.cpu01.pwrStateClkGateDist::max_value    101542500                       # Distribution of time spent in the clock gated state
system.cpu01.pwrStateClkGateDist::total             1                       # Distribution of time spent in the clock gated state
system.cpu01.pwrStateResidencyTicks::ON     426451500                       # Cumulative time (in ticks) in various power states
system.cpu01.pwrStateResidencyTicks::CLK_GATED    101542500                       # Cumulative time (in ticks) in various power states
system.cpu02.Branches                             342                       # Number of branches fetched
system.cpu02.committedInsts                      1788                       # Number of instructions committed
system.cpu02.committedOps                        1794                       # Number of ops (including micro ops) committed
system.cpu02.dtb.accesses                           0                       # DTB accesses
system.cpu02.dtb.hits                               0                       # DTB hits
system.cpu02.dtb.misses                             0                       # DTB misses
system.cpu02.dtb.pwrStateResidencyTicks::UNDEFINED    527994000                       # Cumulative time (in ticks) in various power states
system.cpu02.dtb.read_accesses                      0                       # DTB read accesses
system.cpu02.dtb.read_hits                          0                       # DTB read hits
system.cpu02.dtb.read_misses                        0                       # DTB read misses
system.cpu02.dtb.write_accesses                     0                       # DTB write accesses
system.cpu02.dtb.write_hits                         0                       # DTB write hits
system.cpu02.dtb.write_misses                       0                       # DTB write misses
system.cpu02.idle_fraction                   0.979994                       # Percentage of idle cycles
system.cpu02.itb.accesses                           0                       # DTB accesses
system.cpu02.itb.hits                               0                       # DTB hits
system.cpu02.itb.misses                             0                       # DTB misses
system.cpu02.itb.pwrStateResidencyTicks::UNDEFINED    527994000                       # Cumulative time (in ticks) in various power states
system.cpu02.itb.read_accesses                      0                       # DTB read accesses
system.cpu02.itb.read_hits                          0                       # DTB read hits
system.cpu02.itb.read_misses                        0                       # DTB read misses
system.cpu02.itb.write_accesses                     0                       # DTB write accesses
system.cpu02.itb.write_hits                         0                       # DTB write hits
system.cpu02.itb.write_misses                       0                       # DTB write misses
system.cpu02.not_idle_fraction               0.020006                       # Percentage of non-idle cycles
system.cpu02.numCycles                        1055924                       # number of cpu cycles simulated
system.cpu02.numPwrStateTransitions                 2                       # Number of power state transitions
system.cpu02.numWorkItemsCompleted                  0                       # number of work items this cpu completed
system.cpu02.numWorkItemsStarted                    0                       # number of work items this cpu started
system.cpu02.num_busy_cycles             21124.721582                       # Number of busy cycles
system.cpu02.num_conditional_control_insts          180                       # number of instructions that are conditional controls
system.cpu02.num_fp_alu_accesses                   12                       # Number of float alu accesses
system.cpu02.num_fp_insts                          12                       # number of float instructions
system.cpu02.num_fp_register_reads                 12                       # number of times the floating registers were read
system.cpu02.num_fp_register_writes                 0                       # number of times the floating registers were written
system.cpu02.num_func_calls                       162                       # number of times a function call or return occured
system.cpu02.num_idle_cycles             1034799.278418                       # Number of idle cycles
system.cpu02.num_int_alu_accesses                1760                       # Number of integer alu accesses
system.cpu02.num_int_insts                       1760                       # number of integer instructions
system.cpu02.num_int_register_reads              2043                       # number of times the integer registers were read
system.cpu02.num_int_register_writes             1268                       # number of times the integer registers were written
system.cpu02.num_load_insts                       421                       # Number of load instructions
system.cpu02.num_mem_refs                         672                       # number of memory refs
system.cpu02.num_store_insts                      251                       # Number of store instructions
system.cpu02.num_vec_alu_accesses                   0                       # Number of vector alu accesses
system.cpu02.num_vec_insts                          0                       # number of vector instructions
system.cpu02.num_vec_register_reads                 0                       # number of times the vector registers were read
system.cpu02.num_vec_register_writes                0                       # number of times the vector registers were written
system.cpu02.op_class::No_OpClass                  10      0.56%      0.56% # Class of executed instruction
system.cpu02.op_class::IntAlu                    1111     61.86%     62.42% # Class of executed instruction
system.cpu02.op_class::IntMult                      1      0.06%     62.47% # Class of executed instruction
system.cpu02.op_class::IntDiv                       2      0.11%     62.58% # Class of executed instruction
system.cpu02.op_class::FloatAdd                     0      0.00%     62.58% # Class of executed instruction
system.cpu02.op_class::FloatCmp                     0      0.00%     62.58% # Class of executed instruction
system.cpu02.op_class::FloatCvt                     0      0.00%     62.58% # Class of executed instruction
system.cpu02.op_class::FloatMult                    0      0.00%     62.58% # Class of executed instruction
system.cpu02.op_class::FloatMultAcc                 0      0.00%     62.58% # Class of executed instruction
system.cpu02.op_class::FloatDiv                     0      0.00%     62.58% # Class of executed instruction
system.cpu02.op_class::FloatMisc                    0      0.00%     62.58% # Class of executed instruction
system.cpu02.op_class::FloatSqrt                    0      0.00%     62.58% # Class of executed instruction
system.cpu02.op_class::SimdAdd                      0      0.00%     62.58% # Class of executed instruction
system.cpu02.op_class::SimdAddAcc                   0      0.00%     62.58% # Class of executed instruction
system.cpu02.op_class::SimdAlu                      0      0.00%     62.58% # Class of executed instruction
system.cpu02.op_class::SimdCmp                      0      0.00%     62.58% # Class of executed instruction
system.cpu02.op_class::SimdCvt                      0      0.00%     62.58% # Class of executed instruction
system.cpu02.op_class::SimdMisc                     0      0.00%     62.58% # Class of executed instruction
system.cpu02.op_class::SimdMult                     0      0.00%     62.58% # Class of executed instruction
system.cpu02.op_class::SimdMultAcc                  0      0.00%     62.58% # Class of executed instruction
system.cpu02.op_class::SimdShift                    0      0.00%     62.58% # Class of executed instruction
system.cpu02.op_class::SimdShiftAcc                 0      0.00%     62.58% # Class of executed instruction
system.cpu02.op_class::SimdSqrt                     0      0.00%     62.58% # Class of executed instruction
system.cpu02.op_class::SimdFloatAdd                 0      0.00%     62.58% # Class of executed instruction
system.cpu02.op_class::SimdFloatAlu                 0      0.00%     62.58% # Class of executed instruction
system.cpu02.op_class::SimdFloatCmp                 0      0.00%     62.58% # Class of executed instruction
system.cpu02.op_class::SimdFloatCvt                 0      0.00%     62.58% # Class of executed instruction
system.cpu02.op_class::SimdFloatDiv                 0      0.00%     62.58% # Class of executed instruction
system.cpu02.op_class::SimdFloatMisc                0      0.00%     62.58% # Class of executed instruction
system.cpu02.op_class::SimdFloatMult                0      0.00%     62.58% # Class of executed instruction
system.cpu02.op_class::SimdFloatMultAcc             0      0.00%     62.58% # Class of executed instruction
system.cpu02.op_class::SimdFloatSqrt                0      0.00%     62.58% # Class of executed instruction
system.cpu02.op_class::SimdAes                      0      0.00%     62.58% # Class of executed instruction
system.cpu02.op_class::SimdAesMix                   0      0.00%     62.58% # Class of executed instruction
system.cpu02.op_class::SimdSha1Hash                 0      0.00%     62.58% # Class of executed instruction
system.cpu02.op_class::SimdSha1Hash2                0      0.00%     62.58% # Class of executed instruction
system.cpu02.op_class::SimdSha256Hash               0      0.00%     62.58% # Class of executed instruction
system.cpu02.op_class::SimdSha256Hash2              0      0.00%     62.58% # Class of executed instruction
system.cpu02.op_class::SimdShaSigma2                0      0.00%     62.58% # Class of executed instruction
system.cpu02.op_class::SimdShaSigma3                0      0.00%     62.58% # Class of executed instruction
system.cpu02.op_class::MemRead                    425     23.66%     86.25% # Class of executed instruction
system.cpu02.op_class::MemWrite                   235     13.08%     99.33% # Class of executed instruction
system.cpu02.op_class::FloatMemRead                 0      0.00%     99.33% # Class of executed instruction
system.cpu02.op_class::FloatMemWrite               12      0.67%    100.00% # Class of executed instruction
system.cpu02.op_class::IprAccess                    0      0.00%    100.00% # Class of executed instruction
system.cpu02.op_class::InstPrefetch                 0      0.00%    100.00% # Class of executed instruction
system.cpu02.op_class::total                     1796                       # Class of executed instruction
system.cpu02.pwrStateClkGateDist::samples            1                       # Distribution of time spent in the clock gated state
system.cpu02.pwrStateClkGateDist::mean       95450000                       # Distribution of time spent in the clock gated state
system.cpu02.pwrStateClkGateDist::1000-5e+10            1    100.00%    100.00% # Distribution of time spent in the clock gated state
system.cpu02.pwrStateClkGateDist::min_value     95450000                       # Distribution of time spent in the clock gated state
system.cpu02.pwrStateClkGateDist::max_value     95450000                       # Distribution of time spent in the clock gated state
system.cpu02.pwrStateClkGateDist::total             1                       # Distribution of time spent in the clock gated state
system.cpu02.pwrStateResidencyTicks::ON     432544000                       # Cumulative time (in ticks) in various power states
system.cpu02.pwrStateResidencyTicks::CLK_GATED     95450000                       # Cumulative time (in ticks) in various power states
system.cpu03.Branches                             334                       # Number of branches fetched
system.cpu03.committedInsts                      1728                       # Number of instructions committed
system.cpu03.committedOps                        1734                       # Number of ops (including micro ops) committed
system.cpu03.dtb.accesses                           0                       # DTB accesses
system.cpu03.dtb.hits                               0                       # DTB hits
system.cpu03.dtb.misses                             0                       # DTB misses
system.cpu03.dtb.pwrStateResidencyTicks::UNDEFINED    527994000                       # Cumulative time (in ticks) in various power states
system.cpu03.dtb.read_accesses                      0                       # DTB read accesses
system.cpu03.dtb.read_hits                          0                       # DTB read hits
system.cpu03.dtb.read_misses                        0                       # DTB read misses
system.cpu03.dtb.write_accesses                     0                       # DTB write accesses
system.cpu03.dtb.write_hits                         0                       # DTB write hits
system.cpu03.dtb.write_misses                       0                       # DTB write misses
system.cpu03.idle_fraction                   0.979303                       # Percentage of idle cycles
system.cpu03.itb.accesses                           0                       # DTB accesses
system.cpu03.itb.hits                               0                       # DTB hits
system.cpu03.itb.misses                             0                       # DTB misses
system.cpu03.itb.pwrStateResidencyTicks::UNDEFINED    527994000                       # Cumulative time (in ticks) in various power states
system.cpu03.itb.read_accesses                      0                       # DTB read accesses
system.cpu03.itb.read_hits                          0                       # DTB read hits
system.cpu03.itb.read_misses                        0                       # DTB read misses
system.cpu03.itb.write_accesses                     0                       # DTB write accesses
system.cpu03.itb.write_hits                         0                       # DTB write hits
system.cpu03.itb.write_misses                       0                       # DTB write misses
system.cpu03.not_idle_fraction               0.020697                       # Percentage of non-idle cycles
system.cpu03.numCycles                        1055973                       # number of cpu cycles simulated
system.cpu03.numPwrStateTransitions                 2                       # Number of power state transitions
system.cpu03.numWorkItemsCompleted                  0                       # number of work items this cpu completed
system.cpu03.numWorkItemsStarted                    0                       # number of work items this cpu started
system.cpu03.num_busy_cycles             21855.691501                       # Number of busy cycles
system.cpu03.num_conditional_control_insts          170                       # number of instructions that are conditional controls
system.cpu03.num_fp_alu_accesses                   12                       # Number of float alu accesses
system.cpu03.num_fp_insts                          12                       # number of float instructions
system.cpu03.num_fp_register_reads                 12                       # number of times the floating registers were read
system.cpu03.num_fp_register_writes                 0                       # number of times the floating registers were written
system.cpu03.num_func_calls                       164                       # number of times a function call or return occured
system.cpu03.num_idle_cycles             1034117.308499                       # Number of idle cycles
system.cpu03.num_int_alu_accesses                1694                       # Number of integer alu accesses
system.cpu03.num_int_insts                       1694                       # number of integer instructions
system.cpu03.num_int_register_reads              1968                       # number of times the integer registers were read
system.cpu03.num_int_register_writes             1219                       # number of times the integer registers were written
system.cpu03.num_load_insts                       404                       # Number of load instructions
system.cpu03.num_mem_refs                         648                       # number of memory refs
system.cpu03.num_store_insts                      244                       # Number of store instructions
system.cpu03.num_vec_alu_accesses                   0                       # Number of vector alu accesses
system.cpu03.num_vec_insts                          0                       # number of vector instructions
system.cpu03.num_vec_register_reads                 0                       # number of times the vector registers were read
system.cpu03.num_vec_register_writes                0                       # number of times the vector registers were written
system.cpu03.op_class::No_OpClass                  10      0.58%      0.58% # Class of executed instruction
system.cpu03.op_class::IntAlu                    1075     61.92%     62.50% # Class of executed instruction
system.cpu03.op_class::IntMult                      1      0.06%     62.56% # Class of executed instruction
system.cpu03.op_class::IntDiv                       2      0.12%     62.67% # Class of executed instruction
system.cpu03.op_class::FloatAdd                     0      0.00%     62.67% # Class of executed instruction
system.cpu03.op_class::FloatCmp                     0      0.00%     62.67% # Class of executed instruction
system.cpu03.op_class::FloatCvt                     0      0.00%     62.67% # Class of executed instruction
system.cpu03.op_class::FloatMult                    0      0.00%     62.67% # Class of executed instruction
system.cpu03.op_class::FloatMultAcc                 0      0.00%     62.67% # Class of executed instruction
system.cpu03.op_class::FloatDiv                     0      0.00%     62.67% # Class of executed instruction
system.cpu03.op_class::FloatMisc                    0      0.00%     62.67% # Class of executed instruction
system.cpu03.op_class::FloatSqrt                    0      0.00%     62.67% # Class of executed instruction
system.cpu03.op_class::SimdAdd                      0      0.00%     62.67% # Class of executed instruction
system.cpu03.op_class::SimdAddAcc                   0      0.00%     62.67% # Class of executed instruction
system.cpu03.op_class::SimdAlu                      0      0.00%     62.67% # Class of executed instruction
system.cpu03.op_class::SimdCmp                      0      0.00%     62.67% # Class of executed instruction
system.cpu03.op_class::SimdCvt                      0      0.00%     62.67% # Class of executed instruction
system.cpu03.op_class::SimdMisc                     0      0.00%     62.67% # Class of executed instruction
system.cpu03.op_class::SimdMult                     0      0.00%     62.67% # Class of executed instruction
system.cpu03.op_class::SimdMultAcc                  0      0.00%     62.67% # Class of executed instruction
system.cpu03.op_class::SimdShift                    0      0.00%     62.67% # Class of executed instruction
system.cpu03.op_class::SimdShiftAcc                 0      0.00%     62.67% # Class of executed instruction
system.cpu03.op_class::SimdSqrt                     0      0.00%     62.67% # Class of executed instruction
system.cpu03.op_class::SimdFloatAdd                 0      0.00%     62.67% # Class of executed instruction
system.cpu03.op_class::SimdFloatAlu                 0      0.00%     62.67% # Class of executed instruction
system.cpu03.op_class::SimdFloatCmp                 0      0.00%     62.67% # Class of executed instruction
system.cpu03.op_class::SimdFloatCvt                 0      0.00%     62.67% # Class of executed instruction
system.cpu03.op_class::SimdFloatDiv                 0      0.00%     62.67% # Class of executed instruction
system.cpu03.op_class::SimdFloatMisc                0      0.00%     62.67% # Class of executed instruction
system.cpu03.op_class::SimdFloatMult                0      0.00%     62.67% # Class of executed instruction
system.cpu03.op_class::SimdFloatMultAcc             0      0.00%     62.67% # Class of executed instruction
system.cpu03.op_class::SimdFloatSqrt                0      0.00%     62.67% # Class of executed instruction
system.cpu03.op_class::SimdAes                      0      0.00%     62.67% # Class of executed instruction
system.cpu03.op_class::SimdAesMix                   0      0.00%     62.67% # Class of executed instruction
system.cpu03.op_class::SimdSha1Hash                 0      0.00%     62.67% # Class of executed instruction
system.cpu03.op_class::SimdSha1Hash2                0      0.00%     62.67% # Class of executed instruction
system.cpu03.op_class::SimdSha256Hash               0      0.00%     62.67% # Class of executed instruction
system.cpu03.op_class::SimdSha256Hash2              0      0.00%     62.67% # Class of executed instruction
system.cpu03.op_class::SimdShaSigma2                0      0.00%     62.67% # Class of executed instruction
system.cpu03.op_class::SimdShaSigma3                0      0.00%     62.67% # Class of executed instruction
system.cpu03.op_class::MemRead                    408     23.50%     86.18% # Class of executed instruction
system.cpu03.op_class::MemWrite                   228     13.13%     99.31% # Class of executed instruction
system.cpu03.op_class::FloatMemRead                 0      0.00%     99.31% # Class of executed instruction
system.cpu03.op_class::FloatMemWrite               12      0.69%    100.00% # Class of executed instruction
system.cpu03.op_class::IprAccess                    0      0.00%    100.00% # Class of executed instruction
system.cpu03.op_class::InstPrefetch                 0      0.00%    100.00% # Class of executed instruction
system.cpu03.op_class::total                     1736                       # Class of executed instruction
system.cpu03.pwrStateClkGateDist::samples            1                       # Distribution of time spent in the clock gated state
system.cpu03.pwrStateClkGateDist::mean       87239500                       # Distribution of time spent in the clock gated state
system.cpu03.pwrStateClkGateDist::1000-5e+10            1    100.00%    100.00% # Distribution of time spent in the clock gated state
system.cpu03.pwrStateClkGateDist::min_value     87239500                       # Distribution of time spent in the clock gated state
system.cpu03.pwrStateClkGateDist::max_value     87239500                       # Distribution of time spent in the clock gated state
system.cpu03.pwrStateClkGateDist::total             1                       # Distribution of time spent in the clock gated state
system.cpu03.pwrStateResidencyTicks::ON     440754500                       # Cumulative time (in ticks) in various power states
system.cpu03.pwrStateResidencyTicks::CLK_GATED     87239500                       # Cumulative time (in ticks) in various power states
system.cpu04.Branches                             292                       # Number of branches fetched
system.cpu04.committedInsts                      1508                       # Number of instructions committed
system.cpu04.committedOps                        1514                       # Number of ops (including micro ops) committed
system.cpu04.dtb.accesses                           0                       # DTB accesses
system.cpu04.dtb.hits                               0                       # DTB hits
system.cpu04.dtb.misses                             0                       # DTB misses
system.cpu04.dtb.pwrStateResidencyTicks::UNDEFINED    527994000                       # Cumulative time (in ticks) in various power states
system.cpu04.dtb.read_accesses                      0                       # DTB read accesses
system.cpu04.dtb.read_hits                          0                       # DTB read hits
system.cpu04.dtb.read_misses                        0                       # DTB read misses
system.cpu04.dtb.write_accesses                     0                       # DTB write accesses
system.cpu04.dtb.write_hits                         0                       # DTB write hits
system.cpu04.dtb.write_misses                       0                       # DTB write misses
system.cpu04.idle_fraction                   0.979960                       # Percentage of idle cycles
system.cpu04.itb.accesses                           0                       # DTB accesses
system.cpu04.itb.hits                               0                       # DTB hits
system.cpu04.itb.misses                             0                       # DTB misses
system.cpu04.itb.pwrStateResidencyTicks::UNDEFINED    527994000                       # Cumulative time (in ticks) in various power states
system.cpu04.itb.read_accesses                      0                       # DTB read accesses
system.cpu04.itb.read_hits                          0                       # DTB read hits
system.cpu04.itb.read_misses                        0                       # DTB read misses
system.cpu04.itb.write_accesses                     0                       # DTB write accesses
system.cpu04.itb.write_hits                         0                       # DTB write hits
system.cpu04.itb.write_misses                       0                       # DTB write misses
system.cpu04.not_idle_fraction               0.020040                       # Percentage of non-idle cycles
system.cpu04.numCycles                        1055982                       # number of cpu cycles simulated
system.cpu04.numPwrStateTransitions                 2                       # Number of power state transitions
system.cpu04.numWorkItemsCompleted                  0                       # number of work items this cpu completed
system.cpu04.numWorkItemsStarted                    0                       # number of work items this cpu started
system.cpu04.num_busy_cycles             21161.881720                       # Number of busy cycles
system.cpu04.num_conditional_control_insts          150                       # number of instructions that are conditional controls
system.cpu04.num_fp_alu_accesses                   12                       # Number of float alu accesses
system.cpu04.num_fp_insts                          12                       # number of float instructions
system.cpu04.num_fp_register_reads                 12                       # number of times the floating registers were read
system.cpu04.num_fp_register_writes                 0                       # number of times the floating registers were written
system.cpu04.num_func_calls                       142                       # number of times a function call or return occured
system.cpu04.num_idle_cycles             1034820.118280                       # Number of idle cycles
system.cpu04.num_int_alu_accesses                1480                       # Number of integer alu accesses
system.cpu04.num_int_insts                       1480                       # number of integer instructions
system.cpu04.num_int_register_reads              1723                       # number of times the integer registers were read
system.cpu04.num_int_register_writes             1058                       # number of times the integer registers were written
system.cpu04.num_load_insts                       351                       # Number of load instructions
system.cpu04.num_mem_refs                         572                       # number of memory refs
system.cpu04.num_store_insts                      221                       # Number of store instructions
system.cpu04.num_vec_alu_accesses                   0                       # Number of vector alu accesses
system.cpu04.num_vec_insts                          0                       # number of vector instructions
system.cpu04.num_vec_register_reads                 0                       # number of times the vector registers were read
system.cpu04.num_vec_register_writes                0                       # number of times the vector registers were written
system.cpu04.op_class::No_OpClass                  10      0.66%      0.66% # Class of executed instruction
system.cpu04.op_class::IntAlu                     931     61.41%     62.07% # Class of executed instruction
system.cpu04.op_class::IntMult                      1      0.07%     62.14% # Class of executed instruction
system.cpu04.op_class::IntDiv                       2      0.13%     62.27% # Class of executed instruction
system.cpu04.op_class::FloatAdd                     0      0.00%     62.27% # Class of executed instruction
system.cpu04.op_class::FloatCmp                     0      0.00%     62.27% # Class of executed instruction
system.cpu04.op_class::FloatCvt                     0      0.00%     62.27% # Class of executed instruction
system.cpu04.op_class::FloatMult                    0      0.00%     62.27% # Class of executed instruction
system.cpu04.op_class::FloatMultAcc                 0      0.00%     62.27% # Class of executed instruction
system.cpu04.op_class::FloatDiv                     0      0.00%     62.27% # Class of executed instruction
system.cpu04.op_class::FloatMisc                    0      0.00%     62.27% # Class of executed instruction
system.cpu04.op_class::FloatSqrt                    0      0.00%     62.27% # Class of executed instruction
system.cpu04.op_class::SimdAdd                      0      0.00%     62.27% # Class of executed instruction
system.cpu04.op_class::SimdAddAcc                   0      0.00%     62.27% # Class of executed instruction
system.cpu04.op_class::SimdAlu                      0      0.00%     62.27% # Class of executed instruction
system.cpu04.op_class::SimdCmp                      0      0.00%     62.27% # Class of executed instruction
system.cpu04.op_class::SimdCvt                      0      0.00%     62.27% # Class of executed instruction
system.cpu04.op_class::SimdMisc                     0      0.00%     62.27% # Class of executed instruction
system.cpu04.op_class::SimdMult                     0      0.00%     62.27% # Class of executed instruction
system.cpu04.op_class::SimdMultAcc                  0      0.00%     62.27% # Class of executed instruction
system.cpu04.op_class::SimdShift                    0      0.00%     62.27% # Class of executed instruction
system.cpu04.op_class::SimdShiftAcc                 0      0.00%     62.27% # Class of executed instruction
system.cpu04.op_class::SimdSqrt                     0      0.00%     62.27% # Class of executed instruction
system.cpu04.op_class::SimdFloatAdd                 0      0.00%     62.27% # Class of executed instruction
system.cpu04.op_class::SimdFloatAlu                 0      0.00%     62.27% # Class of executed instruction
system.cpu04.op_class::SimdFloatCmp                 0      0.00%     62.27% # Class of executed instruction
system.cpu04.op_class::SimdFloatCvt                 0      0.00%     62.27% # Class of executed instruction
system.cpu04.op_class::SimdFloatDiv                 0      0.00%     62.27% # Class of executed instruction
system.cpu04.op_class::SimdFloatMisc                0      0.00%     62.27% # Class of executed instruction
system.cpu04.op_class::SimdFloatMult                0      0.00%     62.27% # Class of executed instruction
system.cpu04.op_class::SimdFloatMultAcc             0      0.00%     62.27% # Class of executed instruction
system.cpu04.op_class::SimdFloatSqrt                0      0.00%     62.27% # Class of executed instruction
system.cpu04.op_class::SimdAes                      0      0.00%     62.27% # Class of executed instruction
system.cpu04.op_class::SimdAesMix                   0      0.00%     62.27% # Class of executed instruction
system.cpu04.op_class::SimdSha1Hash                 0      0.00%     62.27% # Class of executed instruction
system.cpu04.op_class::SimdSha1Hash2                0      0.00%     62.27% # Class of executed instruction
system.cpu04.op_class::SimdSha256Hash               0      0.00%     62.27% # Class of executed instruction
system.cpu04.op_class::SimdSha256Hash2              0      0.00%     62.27% # Class of executed instruction
system.cpu04.op_class::SimdShaSigma2                0      0.00%     62.27% # Class of executed instruction
system.cpu04.op_class::SimdShaSigma3                0      0.00%     62.27% # Class of executed instruction
system.cpu04.op_class::MemRead                    355     23.42%     85.69% # Class of executed instruction
system.cpu04.op_class::MemWrite                   205     13.52%     99.21% # Class of executed instruction
system.cpu04.op_class::FloatMemRead                 0      0.00%     99.21% # Class of executed instruction
system.cpu04.op_class::FloatMemWrite               12      0.79%    100.00% # Class of executed instruction
system.cpu04.op_class::IprAccess                    0      0.00%    100.00% # Class of executed instruction
system.cpu04.op_class::InstPrefetch                 0      0.00%    100.00% # Class of executed instruction
system.cpu04.op_class::total                     1516                       # Class of executed instruction
system.cpu04.pwrStateClkGateDist::samples            1                       # Distribution of time spent in the clock gated state
system.cpu04.pwrStateClkGateDist::mean       80891500                       # Distribution of time spent in the clock gated state
system.cpu04.pwrStateClkGateDist::1000-5e+10            1    100.00%    100.00% # Distribution of time spent in the clock gated state
system.cpu04.pwrStateClkGateDist::min_value     80891500                       # Distribution of time spent in the clock gated state
system.cpu04.pwrStateClkGateDist::max_value     80891500                       # Distribution of time spent in the clock gated state
system.cpu04.pwrStateClkGateDist::total             1                       # Distribution of time spent in the clock gated state
system.cpu04.pwrStateResidencyTicks::ON     447102500                       # Cumulative time (in ticks) in various power states
system.cpu04.pwrStateResidencyTicks::CLK_GATED     80891500                       # Cumulative time (in ticks) in various power states
system.cpu05.Branches                             328                       # Number of branches fetched
system.cpu05.committedInsts                      1704                       # Number of instructions committed
system.cpu05.committedOps                        1710                       # Number of ops (including micro ops) committed
system.cpu05.dtb.accesses                           0                       # DTB accesses
system.cpu05.dtb.hits                               0                       # DTB hits
system.cpu05.dtb.misses                             0                       # DTB misses
system.cpu05.dtb.pwrStateResidencyTicks::UNDEFINED    527994000                       # Cumulative time (in ticks) in various power states
system.cpu05.dtb.read_accesses                      0                       # DTB read accesses
system.cpu05.dtb.read_hits                          0                       # DTB read hits
system.cpu05.dtb.read_misses                        0                       # DTB read misses
system.cpu05.dtb.write_accesses                     0                       # DTB write accesses
system.cpu05.dtb.write_hits                         0                       # DTB write hits
system.cpu05.dtb.write_misses                       0                       # DTB write misses
system.cpu05.idle_fraction                   0.979801                       # Percentage of idle cycles
system.cpu05.itb.accesses                           0                       # DTB accesses
system.cpu05.itb.hits                               0                       # DTB hits
system.cpu05.itb.misses                             0                       # DTB misses
system.cpu05.itb.pwrStateResidencyTicks::UNDEFINED    527994000                       # Cumulative time (in ticks) in various power states
system.cpu05.itb.read_accesses                      0                       # DTB read accesses
system.cpu05.itb.read_hits                          0                       # DTB read hits
system.cpu05.itb.read_misses                        0                       # DTB read misses
system.cpu05.itb.write_accesses                     0                       # DTB write accesses
system.cpu05.itb.write_hits                         0                       # DTB write hits
system.cpu05.itb.write_misses                       0                       # DTB write misses
system.cpu05.not_idle_fraction               0.020199                       # Percentage of non-idle cycles
system.cpu05.numCycles                        1055969                       # number of cpu cycles simulated
system.cpu05.numPwrStateTransitions                 2                       # Number of power state transitions
system.cpu05.numWorkItemsCompleted                  0                       # number of work items this cpu completed
system.cpu05.numWorkItemsStarted                    0                       # number of work items this cpu started
system.cpu05.num_busy_cycles             21329.618177                       # Number of busy cycles
system.cpu05.num_conditional_control_insts          170                       # number of instructions that are conditional controls
system.cpu05.num_fp_alu_accesses                   12                       # Number of float alu accesses
system.cpu05.num_fp_insts                          12                       # number of float instructions
system.cpu05.num_fp_register_reads                 12                       # number of times the floating registers were read
system.cpu05.num_fp_register_writes                 0                       # number of times the floating registers were written
system.cpu05.num_func_calls                       158                       # number of times a function call or return occured
system.cpu05.num_idle_cycles             1034639.381823                       # Number of idle cycles
system.cpu05.num_int_alu_accesses                1674                       # Number of integer alu accesses
system.cpu05.num_int_insts                       1674                       # number of integer instructions
system.cpu05.num_int_register_reads              1944                       # number of times the integer registers were read
system.cpu05.num_int_register_writes             1203                       # number of times the integer registers were written
system.cpu05.num_load_insts                       398                       # Number of load instructions
system.cpu05.num_mem_refs                         640                       # number of memory refs
system.cpu05.num_store_insts                      242                       # Number of store instructions
system.cpu05.num_vec_alu_accesses                   0                       # Number of vector alu accesses
system.cpu05.num_vec_insts                          0                       # number of vector instructions
system.cpu05.num_vec_register_reads                 0                       # number of times the vector registers were read
system.cpu05.num_vec_register_writes                0                       # number of times the vector registers were written
system.cpu05.op_class::No_OpClass                  10      0.58%      0.58% # Class of executed instruction
system.cpu05.op_class::IntAlu                    1059     61.86%     62.44% # Class of executed instruction
system.cpu05.op_class::IntMult                      1      0.06%     62.50% # Class of executed instruction
system.cpu05.op_class::IntDiv                       2      0.12%     62.62% # Class of executed instruction
system.cpu05.op_class::FloatAdd                     0      0.00%     62.62% # Class of executed instruction
system.cpu05.op_class::FloatCmp                     0      0.00%     62.62% # Class of executed instruction
system.cpu05.op_class::FloatCvt                     0      0.00%     62.62% # Class of executed instruction
system.cpu05.op_class::FloatMult                    0      0.00%     62.62% # Class of executed instruction
system.cpu05.op_class::FloatMultAcc                 0      0.00%     62.62% # Class of executed instruction
system.cpu05.op_class::FloatDiv                     0      0.00%     62.62% # Class of executed instruction
system.cpu05.op_class::FloatMisc                    0      0.00%     62.62% # Class of executed instruction
system.cpu05.op_class::FloatSqrt                    0      0.00%     62.62% # Class of executed instruction
system.cpu05.op_class::SimdAdd                      0      0.00%     62.62% # Class of executed instruction
system.cpu05.op_class::SimdAddAcc                   0      0.00%     62.62% # Class of executed instruction
system.cpu05.op_class::SimdAlu                      0      0.00%     62.62% # Class of executed instruction
system.cpu05.op_class::SimdCmp                      0      0.00%     62.62% # Class of executed instruction
system.cpu05.op_class::SimdCvt                      0      0.00%     62.62% # Class of executed instruction
system.cpu05.op_class::SimdMisc                     0      0.00%     62.62% # Class of executed instruction
system.cpu05.op_class::SimdMult                     0      0.00%     62.62% # Class of executed instruction
system.cpu05.op_class::SimdMultAcc                  0      0.00%     62.62% # Class of executed instruction
system.cpu05.op_class::SimdShift                    0      0.00%     62.62% # Class of executed instruction
system.cpu05.op_class::SimdShiftAcc                 0      0.00%     62.62% # Class of executed instruction
system.cpu05.op_class::SimdSqrt                     0      0.00%     62.62% # Class of executed instruction
system.cpu05.op_class::SimdFloatAdd                 0      0.00%     62.62% # Class of executed instruction
system.cpu05.op_class::SimdFloatAlu                 0      0.00%     62.62% # Class of executed instruction
system.cpu05.op_class::SimdFloatCmp                 0      0.00%     62.62% # Class of executed instruction
system.cpu05.op_class::SimdFloatCvt                 0      0.00%     62.62% # Class of executed instruction
system.cpu05.op_class::SimdFloatDiv                 0      0.00%     62.62% # Class of executed instruction
system.cpu05.op_class::SimdFloatMisc                0      0.00%     62.62% # Class of executed instruction
system.cpu05.op_class::SimdFloatMult                0      0.00%     62.62% # Class of executed instruction
system.cpu05.op_class::SimdFloatMultAcc             0      0.00%     62.62% # Class of executed instruction
system.cpu05.op_class::SimdFloatSqrt                0      0.00%     62.62% # Class of executed instruction
system.cpu05.op_class::SimdAes                      0      0.00%     62.62% # Class of executed instruction
system.cpu05.op_class::SimdAesMix                   0      0.00%     62.62% # Class of executed instruction
system.cpu05.op_class::SimdSha1Hash                 0      0.00%     62.62% # Class of executed instruction
system.cpu05.op_class::SimdSha1Hash2                0      0.00%     62.62% # Class of executed instruction
system.cpu05.op_class::SimdSha256Hash               0      0.00%     62.62% # Class of executed instruction
system.cpu05.op_class::SimdSha256Hash2              0      0.00%     62.62% # Class of executed instruction
system.cpu05.op_class::SimdShaSigma2                0      0.00%     62.62% # Class of executed instruction
system.cpu05.op_class::SimdShaSigma3                0      0.00%     62.62% # Class of executed instruction
system.cpu05.op_class::MemRead                    402     23.48%     86.10% # Class of executed instruction
system.cpu05.op_class::MemWrite                   226     13.20%     99.30% # Class of executed instruction
system.cpu05.op_class::FloatMemRead                 0      0.00%     99.30% # Class of executed instruction
system.cpu05.op_class::FloatMemWrite               12      0.70%    100.00% # Class of executed instruction
system.cpu05.op_class::IprAccess                    0      0.00%    100.00% # Class of executed instruction
system.cpu05.op_class::InstPrefetch                 0      0.00%    100.00% # Class of executed instruction
system.cpu05.op_class::total                     1712                       # Class of executed instruction
system.cpu05.pwrStateClkGateDist::samples            1                       # Distribution of time spent in the clock gated state
system.cpu05.pwrStateClkGateDist::mean       73307000                       # Distribution of time spent in the clock gated state
system.cpu05.pwrStateClkGateDist::1000-5e+10            1    100.00%    100.00% # Distribution of time spent in the clock gated state
system.cpu05.pwrStateClkGateDist::min_value     73307000                       # Distribution of time spent in the clock gated state
system.cpu05.pwrStateClkGateDist::max_value     73307000                       # Distribution of time spent in the clock gated state
system.cpu05.pwrStateClkGateDist::total             1                       # Distribution of time spent in the clock gated state
system.cpu05.pwrStateResidencyTicks::ON     454687000                       # Cumulative time (in ticks) in various power states
system.cpu05.pwrStateResidencyTicks::CLK_GATED     73307000                       # Cumulative time (in ticks) in various power states
system.cpu06.Branches                             323                       # Number of branches fetched
system.cpu06.committedInsts                      1672                       # Number of instructions committed
system.cpu06.committedOps                        1678                       # Number of ops (including micro ops) committed
system.cpu06.dtb.accesses                           0                       # DTB accesses
system.cpu06.dtb.hits                               0                       # DTB hits
system.cpu06.dtb.misses                             0                       # DTB misses
system.cpu06.dtb.pwrStateResidencyTicks::UNDEFINED    527994000                       # Cumulative time (in ticks) in various power states
system.cpu06.dtb.read_accesses                      0                       # DTB read accesses
system.cpu06.dtb.read_hits                          0                       # DTB read hits
system.cpu06.dtb.read_misses                        0                       # DTB read misses
system.cpu06.dtb.write_accesses                     0                       # DTB write accesses
system.cpu06.dtb.write_hits                         0                       # DTB write hits
system.cpu06.dtb.write_misses                       0                       # DTB write misses
system.cpu06.idle_fraction                   0.980303                       # Percentage of idle cycles
system.cpu06.itb.accesses                           0                       # DTB accesses
system.cpu06.itb.hits                               0                       # DTB hits
system.cpu06.itb.misses                             0                       # DTB misses
system.cpu06.itb.pwrStateResidencyTicks::UNDEFINED    527994000                       # Cumulative time (in ticks) in various power states
system.cpu06.itb.read_accesses                      0                       # DTB read accesses
system.cpu06.itb.read_hits                          0                       # DTB read hits
system.cpu06.itb.read_misses                        0                       # DTB read misses
system.cpu06.itb.write_accesses                     0                       # DTB write accesses
system.cpu06.itb.write_hits                         0                       # DTB write hits
system.cpu06.itb.write_misses                       0                       # DTB write misses
system.cpu06.not_idle_fraction               0.019697                       # Percentage of non-idle cycles
system.cpu06.numCycles                        1055931                       # number of cpu cycles simulated
system.cpu06.numPwrStateTransitions                 2                       # Number of power state transitions
system.cpu06.numWorkItemsCompleted                  0                       # number of work items this cpu completed
system.cpu06.numWorkItemsStarted                    0                       # number of work items this cpu started
system.cpu06.num_busy_cycles             20798.879220                       # Number of busy cycles
system.cpu06.num_conditional_control_insts          165                       # number of instructions that are conditional controls
system.cpu06.num_fp_alu_accesses                   12                       # Number of float alu accesses
system.cpu06.num_fp_insts                          12                       # number of float instructions
system.cpu06.num_fp_register_reads                 12                       # number of times the floating registers were read
system.cpu06.num_fp_register_writes                 0                       # number of times the floating registers were written
system.cpu06.num_func_calls                       158                       # number of times a function call or return occured
system.cpu06.num_idle_cycles             1035132.120780                       # Number of idle cycles
system.cpu06.num_int_alu_accesses                1640                       # Number of integer alu accesses
system.cpu06.num_int_insts                       1640                       # number of integer instructions
system.cpu06.num_int_register_reads              1907                       # number of times the integer registers were read
system.cpu06.num_int_register_writes             1179                       # number of times the integer registers were written
system.cpu06.num_load_insts                       392                       # Number of load instructions
system.cpu06.num_mem_refs                         630                       # number of memory refs
system.cpu06.num_store_insts                      238                       # Number of store instructions
system.cpu06.num_vec_alu_accesses                   0                       # Number of vector alu accesses
system.cpu06.num_vec_insts                          0                       # number of vector instructions
system.cpu06.num_vec_register_reads                 0                       # number of times the vector registers were read
system.cpu06.num_vec_register_writes                0                       # number of times the vector registers were written
system.cpu06.op_class::No_OpClass                  10      0.60%      0.60% # Class of executed instruction
system.cpu06.op_class::IntAlu                    1037     61.73%     62.32% # Class of executed instruction
system.cpu06.op_class::IntMult                      1      0.06%     62.38% # Class of executed instruction
system.cpu06.op_class::IntDiv                       2      0.12%     62.50% # Class of executed instruction
system.cpu06.op_class::FloatAdd                     0      0.00%     62.50% # Class of executed instruction
system.cpu06.op_class::FloatCmp                     0      0.00%     62.50% # Class of executed instruction
system.cpu06.op_class::FloatCvt                     0      0.00%     62.50% # Class of executed instruction
system.cpu06.op_class::FloatMult                    0      0.00%     62.50% # Class of executed instruction
system.cpu06.op_class::FloatMultAcc                 0      0.00%     62.50% # Class of executed instruction
system.cpu06.op_class::FloatDiv                     0      0.00%     62.50% # Class of executed instruction
system.cpu06.op_class::FloatMisc                    0      0.00%     62.50% # Class of executed instruction
system.cpu06.op_class::FloatSqrt                    0      0.00%     62.50% # Class of executed instruction
system.cpu06.op_class::SimdAdd                      0      0.00%     62.50% # Class of executed instruction
system.cpu06.op_class::SimdAddAcc                   0      0.00%     62.50% # Class of executed instruction
system.cpu06.op_class::SimdAlu                      0      0.00%     62.50% # Class of executed instruction
system.cpu06.op_class::SimdCmp                      0      0.00%     62.50% # Class of executed instruction
system.cpu06.op_class::SimdCvt                      0      0.00%     62.50% # Class of executed instruction
system.cpu06.op_class::SimdMisc                     0      0.00%     62.50% # Class of executed instruction
system.cpu06.op_class::SimdMult                     0      0.00%     62.50% # Class of executed instruction
system.cpu06.op_class::SimdMultAcc                  0      0.00%     62.50% # Class of executed instruction
system.cpu06.op_class::SimdShift                    0      0.00%     62.50% # Class of executed instruction
system.cpu06.op_class::SimdShiftAcc                 0      0.00%     62.50% # Class of executed instruction
system.cpu06.op_class::SimdSqrt                     0      0.00%     62.50% # Class of executed instruction
system.cpu06.op_class::SimdFloatAdd                 0      0.00%     62.50% # Class of executed instruction
system.cpu06.op_class::SimdFloatAlu                 0      0.00%     62.50% # Class of executed instruction
system.cpu06.op_class::SimdFloatCmp                 0      0.00%     62.50% # Class of executed instruction
system.cpu06.op_class::SimdFloatCvt                 0      0.00%     62.50% # Class of executed instruction
system.cpu06.op_class::SimdFloatDiv                 0      0.00%     62.50% # Class of executed instruction
system.cpu06.op_class::SimdFloatMisc                0      0.00%     62.50% # Class of executed instruction
system.cpu06.op_class::SimdFloatMult                0      0.00%     62.50% # Class of executed instruction
system.cpu06.op_class::SimdFloatMultAcc             0      0.00%     62.50% # Class of executed instruction
system.cpu06.op_class::SimdFloatSqrt                0      0.00%     62.50% # Class of executed instruction
system.cpu06.op_class::SimdAes                      0      0.00%     62.50% # Class of executed instruction
system.cpu06.op_class::SimdAesMix                   0      0.00%     62.50% # Class of executed instruction
system.cpu06.op_class::SimdSha1Hash                 0      0.00%     62.50% # Class of executed instruction
system.cpu06.op_class::SimdSha1Hash2                0      0.00%     62.50% # Class of executed instruction
system.cpu06.op_class::SimdSha256Hash               0      0.00%     62.50% # Class of executed instruction
system.cpu06.op_class::SimdSha256Hash2              0      0.00%     62.50% # Class of executed instruction
system.cpu06.op_class::SimdShaSigma2                0      0.00%     62.50% # Class of executed instruction
system.cpu06.op_class::SimdShaSigma3                0      0.00%     62.50% # Class of executed instruction
system.cpu06.op_class::MemRead                    396     23.57%     86.07% # Class of executed instruction
system.cpu06.op_class::MemWrite                   222     13.21%     99.29% # Class of executed instruction
system.cpu06.op_class::FloatMemRead                 0      0.00%     99.29% # Class of executed instruction
system.cpu06.op_class::FloatMemWrite               12      0.71%    100.00% # Class of executed instruction
system.cpu06.op_class::IprAccess                    0      0.00%    100.00% # Class of executed instruction
system.cpu06.op_class::InstPrefetch                 0      0.00%    100.00% # Class of executed instruction
system.cpu06.op_class::total                     1680                       # Class of executed instruction
system.cpu06.pwrStateClkGateDist::samples            1                       # Distribution of time spent in the clock gated state
system.cpu06.pwrStateClkGateDist::mean       66696000                       # Distribution of time spent in the clock gated state
system.cpu06.pwrStateClkGateDist::1000-5e+10            1    100.00%    100.00% # Distribution of time spent in the clock gated state
system.cpu06.pwrStateClkGateDist::min_value     66696000                       # Distribution of time spent in the clock gated state
[...]
system.ruby.network.int_links39.credit_link.pwrStateResidencyTicks::UNDEFINED    527994000                       # Cumulative time (in ticks) in various power states
system.ruby.network.int_links39.network_link.pwrStateResidencyTicks::UNDEFINED    527994000                       # Cumulative time (in ticks) in various power states
system.ruby.network.int_links40.credit_link.pwrStateResidencyTicks::UNDEFINED    527994000                       # Cumulative time (in ticks) in various power states
system.ruby.network.int_links40.network_link.pwrStateResidencyTicks::UNDEFINED    527994000                       # Cumulative time (in ticks) in various power states
system.ruby.network.int_links41.credit_link.pwrStateResidencyTicks::UNDEFINED    527994000                       # Cumulative time (in ticks) in various power states
system.ruby.network.int_links41.network_link.pwrStateResidencyTicks::UNDEFINED    527994000                       # Cumulative time (in ticks) in various power states
system.ruby.network.int_links42.credit_link.pwrStateResidencyTicks::UNDEFINED    527994000                       # Cumulative time (in ticks) in various power states
system.ruby.network.int_links42.network_link.pwrStateResidencyTicks::UNDEFINED    527994000                       # Cumulative time (in ticks) in various power states
system.ruby.network.int_links43.credit_link.pwrStateResidencyTicks::UNDEFINED    527994000                       # Cumulative time (in ticks) in various power states
system.ruby.network.int_links43.network_link.pwrStateResidencyTicks::UNDEFINED    527994000                       # Cumulative time (in ticks) in various power states
system.ruby.network.int_links44.credit_link.pwrStateResidencyTicks::UNDEFINED    527994000                       # Cumulative time (in ticks) in various power states
system.ruby.network.int_links44.network_link.pwrStateResidencyTicks::UNDEFINED    527994000                       # Cumulative time (in ticks) in various power states
system.ruby.network.int_links45.credit_link.pwrStateResidencyTicks::UNDEFINED    527994000                       # Cumulative time (in ticks) in various power states
system.ruby.network.int_links45.network_link.pwrStateResidencyTicks::UNDEFINED    527994000                       # Cumulative time (in ticks) in various power states
system.ruby.network.int_links46.credit_link.pwrStateResidencyTicks::UNDEFINED    527994000                       # Cumulative time (in ticks) in various power states
system.ruby.network.int_links46.network_link.pwrStateResidencyTicks::UNDEFINED    527994000                       # Cumulative time (in ticks) in various power states
system.ruby.network.int_links47.credit_link.pwrStateResidencyTicks::UNDEFINED    527994000                       # Cumulative time (in ticks) in various power states
system.ruby.network.int_links47.network_link.pwrStateResidencyTicks::UNDEFINED    527994000                       # Cumulative time (in ticks) in various power states
system.ruby.network.netifs00.pwrStateResidencyTicks::UNDEFINED    527994000                       # Cumulative time (in ticks) in various power states
system.ruby.network.netifs01.pwrStateResidencyTicks::UNDEFINED    527994000                       # Cumulative time (in ticks) in various power states
system.ruby.network.netifs02.pwrStateResidencyTicks::UNDEFINED    527994000                       # Cumulative time (in ticks) in various power states
system.ruby.network.netifs03.pwrStateResidencyTicks::UNDEFINED    527994000                       # Cumulative time (in ticks) in various power states
system.ruby.network.netifs04.pwrStateResidencyTicks::UNDEFINED    527994000                       # Cumulative time (in ticks) in various power states
system.ruby.network.netifs05.pwrStateResidencyTicks::UNDEFINED    527994000                       # Cumulative time (in ticks) in various power states
system.ruby.network.netifs06.pwrStateResidencyTicks::UNDEFINED    527994000                       # Cumulative time (in ticks) in various power states
system.ruby.network.netifs07.pwrStateResidencyTicks::UNDEFINED    527994000                       # Cumulative time (in ticks) in various power states
system.ruby.network.netifs08.pwrStateResidencyTicks::UNDEFINED    527994000                       # Cumulative time (in ticks) in various power states
system.ruby.network.netifs09.pwrStateResidencyTicks::UNDEFINED    527994000                       # Cumulative time (in ticks) in various power states
system.ruby.network.netifs10.pwrStateResidencyTicks::UNDEFINED    527994000                       # Cumulative time (in ticks) in various power states
system.ruby.network.netifs11.pwrStateResidencyTicks::UNDEFINED    527994000                       # Cumulative time (in ticks) in various power states
system.ruby.network.netifs12.pwrStateResidencyTicks::UNDEFINED    527994000                       # Cumulative time (in ticks) in various power states
system.ruby.network.netifs13.pwrStateResidencyTicks::UNDEFINED    527994000                       # Cumulative time (in ticks) in various power states
system.ruby.network.netifs14.pwrStateResidencyTicks::UNDEFINED    527994000                       # Cumulative time (in ticks) in various power states
system.ruby.network.netifs15.pwrStateResidencyTicks::UNDEFINED    527994000                       # Cumulative time (in ticks) in various power states
system.ruby.network.netifs16.pwrStateResidencyTicks::UNDEFINED    527994000                       # Cumulative time (in ticks) in various power states
system.ruby.network.netifs17.pwrStateResidencyTicks::UNDEFINED    527994000                       # Cumulative time (in ticks) in various power states
system.ruby.network.netifs18.pwrStateResidencyTicks::UNDEFINED    527994000                       # Cumulative time (in ticks) in various power states
system.ruby.network.netifs19.pwrStateResidencyTicks::UNDEFINED    527994000                       # Cumulative time (in ticks) in various power states
system.ruby.network.netifs20.pwrStateResidencyTicks::UNDEFINED    527994000                       # Cumulative time (in ticks) in various power states
system.ruby.network.netifs21.pwrStateResidencyTicks::UNDEFINED    527994000                       # Cumulative time (in ticks) in various power states
system.ruby.network.netifs22.pwrStateResidencyTicks::UNDEFINED    527994000                       # Cumulative time (in ticks) in various power states
system.ruby.network.netifs23.pwrStateResidencyTicks::UNDEFINED    527994000                       # Cumulative time (in ticks) in various power states
system.ruby.network.netifs24.pwrStateResidencyTicks::UNDEFINED    527994000                       # Cumulative time (in ticks) in various power states
system.ruby.network.netifs25.pwrStateResidencyTicks::UNDEFINED    527994000                       # Cumulative time (in ticks) in various power states
system.ruby.network.netifs26.pwrStateResidencyTicks::UNDEFINED    527994000                       # Cumulative time (in ticks) in various power states
system.ruby.network.netifs27.pwrStateResidencyTicks::UNDEFINED    527994000                       # Cumulative time (in ticks) in various power states
system.ruby.network.netifs28.pwrStateResidencyTicks::UNDEFINED    527994000                       # Cumulative time (in ticks) in various power states
system.ruby.network.netifs29.pwrStateResidencyTicks::UNDEFINED    527994000                       # Cumulative time (in ticks) in various power states
system.ruby.network.netifs30.pwrStateResidencyTicks::UNDEFINED    527994000                       # Cumulative time (in ticks) in various power states
system.ruby.network.netifs31.pwrStateResidencyTicks::UNDEFINED    527994000                       # Cumulative time (in ticks) in various power states
system.ruby.network.netifs32.pwrStateResidencyTicks::UNDEFINED    527994000                       # Cumulative time (in ticks) in various power states
system.ruby.network.netifs33.pwrStateResidencyTicks::UNDEFINED    527994000                       # Cumulative time (in ticks) in various power states
system.ruby.network.netifs34.pwrStateResidencyTicks::UNDEFINED    527994000                       # Cumulative time (in ticks) in various power states
system.ruby.network.netifs35.pwrStateResidencyTicks::UNDEFINED    527994000                       # Cumulative time (in ticks) in various power states
system.ruby.network.packet_network_latency |      257188                       |      423353                       |       96149                      
system.ruby.network.packet_queueing_latency |       51613                       |       49468                       |       10782                      
system.ruby.network.packets_injected     |       22888     33.98%     33.98% |       33923     50.36%     84.33% |       10554     15.67%    100.00%
system.ruby.network.packets_injected::total        67365                      
system.ruby.network.packets_received     |       22884     33.98%     33.98% |       33915     50.35%     84.33% |       10553     15.67%    100.00%
system.ruby.network.packets_received::total        67352                      
system.ruby.network.pwrStateResidencyTicks::UNDEFINED    527994000                       # Cumulative time (in ticks) in various power states
system.ruby.network.routers00.buffer_reads       107115                      
system.ruby.network.routers00.buffer_writes       107115                      
system.ruby.network.routers00.crossbar_activity       107115                      
system.ruby.network.routers00.pwrStateResidencyTicks::UNDEFINED    527994000                       # Cumulative time (in ticks) in various power states
system.ruby.network.routers00.sw_input_arbiter_activity       107489                      
system.ruby.network.routers00.sw_output_arbiter_activity       107115                      
system.ruby.network.routers01.buffer_reads        47989                      
system.ruby.network.routers01.buffer_writes        47989                      
system.ruby.network.routers01.crossbar_activity        47989                      
system.ruby.network.routers01.pwrStateResidencyTicks::UNDEFINED    527994000                       # Cumulative time (in ticks) in various power states
system.ruby.network.routers01.sw_input_arbiter_activity        48136                      
system.ruby.network.routers01.sw_output_arbiter_activity        47989                      
system.ruby.network.routers02.buffer_reads        35093                      
system.ruby.network.routers02.buffer_writes        35093                      
system.ruby.network.routers02.crossbar_activity        35093                      
system.ruby.network.routers02.pwrStateResidencyTicks::UNDEFINED    527994000                       # Cumulative time (in ticks) in various power states
system.ruby.network.routers02.sw_input_arbiter_activity        35241                      
system.ruby.network.routers02.sw_output_arbiter_activity        35093                      
system.ruby.network.routers03.buffer_reads        27303                      
system.ruby.network.routers03.buffer_writes        27303                      
system.ruby.network.routers03.crossbar_activity        27303                      
system.ruby.network.routers03.pwrStateResidencyTicks::UNDEFINED    527994000                       # Cumulative time (in ticks) in various power states
system.ruby.network.routers03.sw_input_arbiter_activity        27612                      
system.ruby.network.routers03.sw_output_arbiter_activity        27303                      
system.ruby.network.routers04.buffer_reads        66703                      
system.ruby.network.routers04.buffer_writes        66703                      
system.ruby.network.routers04.crossbar_activity        66702                      
system.ruby.network.routers04.pwrStateResidencyTicks::UNDEFINED    527994000                       # Cumulative time (in ticks) in various power states
system.ruby.network.routers04.sw_input_arbiter_activity        67220                      
system.ruby.network.routers04.sw_output_arbiter_activity        66702                      
system.ruby.network.routers05.buffer_reads        25183                      
system.ruby.network.routers05.buffer_writes        25183                      
system.ruby.network.routers05.crossbar_activity        25183                      
system.ruby.network.routers05.pwrStateResidencyTicks::UNDEFINED    527994000                       # Cumulative time (in ticks) in various power states
system.ruby.network.routers05.sw_input_arbiter_activity        25210                      
system.ruby.network.routers05.sw_output_arbiter_activity        25183                      
system.ruby.network.routers06.buffer_reads        19847                      
system.ruby.network.routers06.buffer_writes        19847                      
system.ruby.network.routers06.crossbar_activity        19847                      
system.ruby.network.routers06.pwrStateResidencyTicks::UNDEFINED    527994000                       # Cumulative time (in ticks) in various power states
system.ruby.network.routers06.sw_input_arbiter_activity        19894                      
system.ruby.network.routers06.sw_output_arbiter_activity        19847                      
system.ruby.network.routers07.buffer_reads        22828                      
system.ruby.network.routers07.buffer_writes        22828                      
system.ruby.network.routers07.crossbar_activity        22828                      
system.ruby.network.routers07.pwrStateResidencyTicks::UNDEFINED    527994000                       # Cumulative time (in ticks) in various power states
system.ruby.network.routers07.sw_input_arbiter_activity        23339                      
system.ruby.network.routers07.sw_output_arbiter_activity        22828                      
system.ruby.network.routers08.buffer_reads        50559                      
system.ruby.network.routers08.buffer_writes        50559                      
system.ruby.network.routers08.crossbar_activity        50559                      
system.ruby.network.routers08.pwrStateResidencyTicks::UNDEFINED    527994000                       # Cumulative time (in ticks) in various power states
system.ruby.network.routers08.sw_input_arbiter_activity        52344                      
system.ruby.network.routers08.sw_output_arbiter_activity        50559                      
system.ruby.network.routers09.buffer_reads        25904                      
system.ruby.network.routers09.buffer_writes        25904                      
system.ruby.network.routers09.crossbar_activity        25904                      
system.ruby.network.routers09.pwrStateResidencyTicks::UNDEFINED    527994000                       # Cumulative time (in ticks) in various power states
system.ruby.network.routers09.sw_input_arbiter_activity        26083                      
system.ruby.network.routers09.sw_output_arbiter_activity        25904                      
system.ruby.network.routers10.buffer_reads        26811                      
system.ruby.network.routers10.buffer_writes        26811                      
system.ruby.network.routers10.crossbar_activity        26811                      
system.ruby.network.routers10.pwrStateResidencyTicks::UNDEFINED    527994000                       # Cumulative time (in ticks) in various power states
system.ruby.network.routers10.sw_input_arbiter_activity        27105                      
system.ruby.network.routers10.sw_output_arbiter_activity        26811                      
system.ruby.network.routers11.buffer_reads        33980                      
system.ruby.network.routers11.buffer_writes        33980                      
system.ruby.network.routers11.crossbar_activity        33976                      
system.ruby.network.routers11.pwrStateResidencyTicks::UNDEFINED    527994000                       # Cumulative time (in ticks) in various power states
system.ruby.network.routers11.sw_input_arbiter_activity        37244                      
system.ruby.network.routers11.sw_output_arbiter_activity        33976                      
system.ruby.network.routers12.buffer_reads        48033                      
system.ruby.network.routers12.buffer_writes        48033                      
system.ruby.network.routers12.crossbar_activity        48033                      
system.ruby.network.routers12.pwrStateResidencyTicks::UNDEFINED    527994000                       # Cumulative time (in ticks) in various power states
system.ruby.network.routers12.sw_input_arbiter_activity        52104                      
system.ruby.network.routers12.sw_output_arbiter_activity        48033                      
system.ruby.network.routers13.buffer_reads        32084                      
system.ruby.network.routers13.buffer_writes        32084                      
system.ruby.network.routers13.crossbar_activity        32084                      
system.ruby.network.routers13.pwrStateResidencyTicks::UNDEFINED    527994000                       # Cumulative time (in ticks) in various power states
system.ruby.network.routers13.sw_input_arbiter_activity        32467                      
system.ruby.network.routers13.sw_output_arbiter_activity        32084                      
system.ruby.network.routers14.buffer_reads        27165                      
system.ruby.network.routers14.buffer_writes        27165                      
system.ruby.network.routers14.crossbar_activity        27165                      
system.ruby.network.routers14.pwrStateResidencyTicks::UNDEFINED    527994000                       # Cumulative time (in ticks) in various power states
system.ruby.network.routers14.sw_input_arbiter_activity        27312                      
system.ruby.network.routers14.sw_output_arbiter_activity        27165                      
system.ruby.network.routers15.buffer_reads        25750                      
system.ruby.network.routers15.buffer_writes        25750                      
system.ruby.network.routers15.crossbar_activity        25750                      
system.ruby.network.routers15.pwrStateResidencyTicks::UNDEFINED    527994000                       # Cumulative time (in ticks) in various power states
system.ruby.network.routers15.sw_input_arbiter_activity        26646                      
system.ruby.network.routers15.sw_output_arbiter_activity        25750                      
system.ruby.outstanding_req_hist_seqr::bucket_size            1                      
system.ruby.outstanding_req_hist_seqr::max_bucket            9                      
system.ruby.outstanding_req_hist_seqr::samples       194199                      
system.ruby.outstanding_req_hist_seqr::mean            1                      
system.ruby.outstanding_req_hist_seqr::gmean            1                      
system.ruby.outstanding_req_hist_seqr    |           0      0.00%      0.00% |      194199    100.00%    100.00% |           0      0.00%    100.00% |           0      0.00%    100.00% |           0      0.00%    100.00% |           0      0.00%    100.00% |           0      0.00%    100.00% |           0      0.00%    100.00% |           0      0.00%    100.00% |           0      0.00%    100.00%
system.ruby.outstanding_req_hist_seqr::total       194199                      
system.ruby.pwrStateResidencyTicks::UNDEFINED    527994000                       # Cumulative time (in ticks) in various power states
system.sys_port_proxy.pwrStateResidencyTicks::UNDEFINED    527994000                       # Cumulative time (in ticks) in various power states
system.voltage_domain.voltage                       1                       # Voltage in Volts

---------- End Simulation Statistics   ----------
