
---------- Begin Simulation Statistics ----------
final_tick                                  719224500                       # Number of ticks from beginning of simulation (restored from checkpoints and never reset)
host_inst_rate                                  22098                       # Simulator instruction rate (inst/s)
host_mem_usage                                5160812                       # Number of bytes of host memory used
host_op_rate                                    22149                       # Simulator op (including micro ops) rate (op/s)
host_seconds                                     7.34                       # Real time elapsed on the host
host_tick_rate                               97993720                       # Simulator tick rate (ticks/s)
sim_freq                                 1000000000000                       # Frequency of simulated ticks
sim_insts                                      162180                       # Number of instructions simulated
sim_ops                                        162562                       # Number of ops (including micro ops) simulated
sim_seconds                                  0.000719                       # Number of seconds simulated
sim_ticks                                   719224500                       # Number of ticks simulated
system.clk_domain.clock                          1000                       # Clock period in ticks
system.cpu00.Branches                           22351                       # Number of branches fetched
system.cpu00.committedInsts                    100001                       # Number of instructions committed
system.cpu00.committedOps                      100294                       # Number of ops (including micro ops) committed
system.cpu00.dtb.accesses                           0                       # DTB accesses
system.cpu00.dtb.hits                               0                       # DTB hits
system.cpu00.dtb.misses                             0                       # DTB misses
system.cpu00.dtb.pwrStateResidencyTicks::UNDEFINED    719224500                       # Cumulative time (in ticks) in various power states
system.cpu00.dtb.read_accesses                      0                       # DTB read accesses
system.cpu00.dtb.read_hits                          0                       # DTB read hits
system.cpu00.dtb.read_misses                        0                       # DTB read misses
system.cpu00.dtb.write_accesses                     0                       # DTB write accesses
system.cpu00.dtb.write_hits                         0                       # DTB write hits
system.cpu00.dtb.write_misses                       0                       # DTB write misses
system.cpu00.idle_fraction                   0.002916                       # Percentage of idle cycles
system.cpu00.itb.accesses                           0                       # DTB accesses
system.cpu00.itb.hits                               0                       # DTB hits
system.cpu00.itb.misses                             0                       # DTB misses
system.cpu00.itb.pwrStateResidencyTicks::UNDEFINED    719224500                       # Cumulative time (in ticks) in various power states
system.cpu00.itb.read_accesses                      0                       # DTB read accesses
system.cpu00.itb.read_hits                          0                       # DTB read hits
system.cpu00.itb.read_misses                        0                       # DTB read misses
system.cpu00.itb.write_accesses                     0                       # DTB write accesses
system.cpu00.itb.write_hits                         0                       # DTB write hits
system.cpu00.itb.write_misses                       0                       # DTB write misses
system.cpu00.not_idle_fraction               0.997084                       # Percentage of non-idle cycles
system.cpu00.numCycles                        1438449                       # number of cpu cycles simulated
system.cpu00.numPwrStateTransitions                 2                       # Number of power state transitions
system.cpu00.numWorkItemsCompleted                  0                       # number of work items this cpu completed
system.cpu00.numWorkItemsStarted                    0                       # number of work items this cpu started
system.cpu00.num_busy_cycles             1434254.000006                       # Number of busy cycles
system.cpu00.num_conditional_control_insts        15929                       # number of instructions that are conditional controls
system.cpu00.num_fp_alu_accesses                   12                       # Number of float alu accesses
system.cpu00.num_fp_insts                          12                       # number of float instructions
system.cpu00.num_fp_register_reads                 12                       # number of times the floating registers were read
system.cpu00.num_fp_register_writes                 0                       # number of times the floating registers were written
system.cpu00.num_func_calls                      6422                       # number of times a function call or return occured
system.cpu00.num_idle_cycles              4194.999994                       # Number of idle cycles
system.cpu00.num_int_alu_accesses               98833                       # Number of integer alu accesses
system.cpu00.num_int_insts                      98833                       # number of integer instructions
system.cpu00.num_int_register_reads            120837                       # number of times the integer registers were read
system.cpu00.num_int_register_writes            64472                       # number of times the integer registers were written
system.cpu00.num_load_insts                     20284                       # Number of load instructions
system.cpu00.num_mem_refs                       36549                       # number of memory refs
system.cpu00.num_store_insts                    16265                       # Number of store instructions
system.cpu00.num_vec_alu_accesses                   0                       # Number of vector alu accesses
system.cpu00.num_vec_insts                          0                       # number of vector instructions
system.cpu00.num_vec_register_reads                 0                       # number of times the vector registers were read
system.cpu00.num_vec_register_writes                0                       # number of times the vector registers were written
system.cpu00.op_class::No_OpClass                 860      0.86%      0.86% # Class of executed instruction
system.cpu00.op_class::IntAlu                   62922     62.69%     63.55% # Class of executed instruction
system.cpu00.op_class::IntMult                     30      0.03%     63.58% # Class of executed instruction
system.cpu00.op_class::IntDiv                       6      0.01%     63.58% # Class of executed instruction
system.cpu00.op_class::FloatAdd                     0      0.00%     63.58% # Class of executed instruction
system.cpu00.op_class::FloatCmp                     0      0.00%     63.58% # Class of executed instruction
system.cpu00.op_class::FloatCvt                     0      0.00%     63.58% # Class of executed instruction
system.cpu00.op_class::FloatMult                    0      0.00%     63.58% # Class of executed instruction
system.cpu00.op_class::FloatMultAcc                 0      0.00%     63.58% # Class of executed instruction
system.cpu00.op_class::FloatDiv                     0      0.00%     63.58% # Class of executed instruction
system.cpu00.op_class::FloatMisc                    0      0.00%     63.58% # Class of executed instruction
system.cpu00.op_class::FloatSqrt                    0      0.00%     63.58% # Class of executed instruction
system.cpu00.op_class::SimdAdd                      0      0.00%     63.58% # Class of executed instruction
system.cpu00.op_class::SimdAddAcc                   0      0.00%     63.58% # Class of executed instruction
system.cpu00.op_class::SimdAlu                      0      0.00%     63.58% # Class of executed instruction
system.cpu00.op_class::SimdCmp                      0      0.00%     63.58% # Class of executed instruction
system.cpu00.op_class::SimdCvt                      0      0.00%     63.58% # Class of executed instruction
system.cpu00.op_class::SimdMisc                     0      0.00%     63.58% # Class of executed instruction
system.cpu00.op_class::SimdMult                     0      0.00%     63.58% # Class of executed instruction
system.cpu00.op_class::SimdMultAcc                  0      0.00%     63.58% # Class of executed instruction
system.cpu00.op_class::SimdShift                    0      0.00%     63.58% # Class of executed instruction
system.cpu00.op_class::SimdShiftAcc                 0      0.00%     63.58% # Class of executed instruction
system.cpu00.op_class::SimdSqrt                     0      0.00%     63.58% # Class of executed instruction
system.cpu00.op_class::SimdFloatAdd                 0      0.00%     63.58% # Class of executed instruction
system.cpu00.op_class::SimdFloatAlu                 0      0.00%     63.58% # Class of executed instruction
system.cpu00.op_class::SimdFloatCmp                 0      0.00%     63.58% # Class of executed instruction
system.cpu00.op_class::SimdFloatCvt                 0      0.00%     63.58% # Class of executed instruction
system.cpu00.op_class::SimdFloatDiv                 0      0.00%     63.58% # Class of executed instruction
system.cpu00.op_class::SimdFloatMisc                0      0.00%     63.58% # Class of executed instruction
system.cpu00.op_class::SimdFloatMult                0      0.00%     63.58% # Class of executed instruction
system.cpu00.op_class::SimdFloatMultAcc             0      0.00%     63.58% # Class of executed instruction
system.cpu00.op_class::SimdFloatSqrt                0      0.00%     63.58% # Class of executed instruction
system.cpu00.op_class::SimdAes                      0      0.00%     63.58% # Class of executed instruction
system.cpu00.op_class::SimdAesMix                   0      0.00%     63.58% # Class of executed instruction
system.cpu00.op_class::SimdSha1Hash                 0      0.00%     63.58% # Class of executed instruction
system.cpu00.op_class::SimdSha1Hash2                0      0.00%     63.58% # Class of executed instruction
system.cpu00.op_class::SimdSha256Hash               0      0.00%     63.58% # Class of executed instruction
system.cpu00.op_class::SimdSha256Hash2              0      0.00%     63.58% # Class of executed instruction
system.cpu00.op_class::SimdShaSigma2                0      0.00%     63.58% # Class of executed instruction
system.cpu00.op_class::SimdShaSigma3                0      0.00%     63.58% # Class of executed instruction
system.cpu00.op_class::MemRead                  20569     20.49%     84.08% # Class of executed instruction
system.cpu00.op_class::MemWrite                 15968     15.91%     99.99% # Class of executed instruction
system.cpu00.op_class::FloatMemRead                 0      0.00%     99.99% # Class of executed instruction
system.cpu00.op_class::FloatMemWrite               12      0.01%    100.00% # Class of executed instruction
system.cpu00.op_class::IprAccess                    0      0.00%    100.00% # Class of executed instruction
system.cpu00.op_class::InstPrefetch                 0      0.00%    100.00% # Class of executed instruction
system.cpu00.op_class::total                   100367                       # Class of executed instruction
system.cpu00.pwrStateClkGateDist::samples            1                       # Distribution of time spent in the clock gated state
system.cpu00.pwrStateClkGateDist::mean        2097500                       # Distribution of time spent in the clock gated state
system.cpu00.pwrStateClkGateDist::1000-5e+10            1    100.00%    100.00% # Distribution of time spent in the clock gated state
system.cpu00.pwrStateClkGateDist::min_value      2097500                       # Distribution of time spent in the clock gated state
system.cpu00.pwrStateClkGateDist::max_value      2097500                       # Distribution of time spent in the clock gated state
system.cpu00.pwrStateClkGateDist::total             1                       # Distribution of time spent in the clock gated state
system.cpu00.pwrStateResidencyTicks::ON     717127000                       # Cumulative time (in ticks) in various power states
system.cpu00.pwrStateResidencyTicks::CLK_GATED      2097500                       # Cumulative time (in ticks) in various power states
system.cpu00.workload.numSyscalls                  72                       # Number of system calls
system.cpu01.Branches                             791                       # Number of branches fetched
system.cpu01.committedInsts                      4205                       # Number of instructions committed
system.cpu01.committedOps                        4211                       # Number of ops (including micro ops) committed
system.cpu01.dtb.accesses                           0                       # DTB accesses
system.cpu01.dtb.hits                               0                       # DTB hits
system.cpu01.dtb.misses                             0                       # DTB misses
system.cpu01.dtb.pwrStateResidencyTicks::UNDEFINED    719224500                       # Cumulative time (in ticks) in various power states
system.cpu01.dtb.read_accesses                      0                       # DTB read accesses
system.cpu01.dtb.read_hits                          0                       # DTB read hits
system.cpu01.dtb.read_misses                        0                       # DTB read misses
system.cpu01.dtb.write_accesses                     0                       # DTB write accesses
system.cpu01.dtb.write_hits                         0                       # DTB write hits
system.cpu01.dtb.write_misses                       0                       # DTB write misses
system.cpu01.idle_fraction                   0.981755                       # Percentage of idle cycles
system.cpu01.itb.accesses                           0                       # DTB accesses
system.cpu01.itb.hits                               0                       # DTB hits
system.cpu01.itb.misses                             0                       # DTB misses
system.cpu01.itb.pwrStateResidencyTicks::UNDEFINED    719224500                       # Cumulative time (in ticks) in various power states
system.cpu01.itb.read_accesses                      0                       # DTB read accesses
system.cpu01.itb.read_hits                          0                       # DTB read hits
system.cpu01.itb.read_misses                        0                       # DTB read misses
system.cpu01.itb.write_accesses                     0                       # DTB write accesses
system.cpu01.itb.write_hits                         0                       # DTB write hits
system.cpu01.itb.write_misses                       0                       # DTB write misses
system.cpu01.not_idle_fraction               0.018245                       # Percentage of non-idle cycles
system.cpu01.numCycles                        1438449                       # number of cpu cycles simulated
system.cpu01.numPwrStateTransitions                 2                       # Number of power state transitions
system.cpu01.numWorkItemsCompleted                  0                       # number of work items this cpu completed
system.cpu01.numWorkItemsStarted                    0                       # number of work items this cpu started
system.cpu01.num_busy_cycles             26244.001964                       # Number of busy cycles
system.cpu01.num_conditional_control_insts          414                       # number of instructions that are conditional controls
system.cpu01.num_fp_alu_accesses                   12                       # Number of float alu accesses
system.cpu01.num_fp_insts                          12                       # number of float instructions
system.cpu01.num_fp_register_reads                 12                       # number of times the floating registers were read
system.cpu01.num_fp_register_writes                 0                       # number of times the floating registers were written
system.cpu01.num_func_calls                       377                       # number of times a function call or return occured
system.cpu01.num_idle_cycles             1412204.998036                       # Number of idle cycles
system.cpu01.num_int_alu_accesses                4137                       # Number of integer alu accesses
system.cpu01.num_int_insts                       4137                       # number of integer instructions
system.cpu01.num_int_register_reads              4771                       # number of times the integer registers were read
system.cpu01.num_int_register_writes             3059                       # number of times the integer registers were written
system.cpu01.num_load_insts                      1024                       # Number of load instructions
system.cpu01.num_mem_refs                        1529                       # number of memory refs
system.cpu01.num_store_insts                      505                       # Number of store instructions
system.cpu01.num_vec_alu_accesses                   0                       # Number of vector alu accesses
system.cpu01.num_vec_insts                          0                       # number of vector instructions
system.cpu01.num_vec_register_reads                 0                       # number of times the vector registers were read
system.cpu01.num_vec_register_writes                0                       # number of times the vector registers were written
system.cpu01.op_class::No_OpClass                  10      0.24%      0.24% # Class of executed instruction
system.cpu01.op_class::IntAlu                    2671     63.40%     63.64% # Class of executed instruction
system.cpu01.op_class::IntMult                      1      0.02%     63.66% # Class of executed instruction
system.cpu01.op_class::IntDiv                       2      0.05%     63.71% # Class of executed instruction
system.cpu01.op_class::FloatAdd                     0      0.00%     63.71% # Class of executed instruction
system.cpu01.op_class::FloatCmp                     0      0.00%     63.71% # Class of executed instruction
system.cpu01.op_class::FloatCvt                     0      0.00%     63.71% # Class of executed instruction
system.cpu01.op_class::FloatMult                    0      0.00%     63.71% # Class of executed instruction
system.cpu01.op_class::FloatMultAcc                 0      0.00%     63.71% # Class of executed instruction
system.cpu01.op_class::FloatDiv                     0      0.00%     63.71% # Class of executed instruction
system.cpu01.op_class::FloatMisc                    0      0.00%     63.71% # Class of executed instruction
system.cpu01.op_class::FloatSqrt                    0      0.00%     63.71% # Class of executed instruction
system.cpu01.op_class::SimdAdd                      0      0.00%     63.71% # Class of executed instruction
system.cpu01.op_class::SimdAddAcc                   0      0.00%     63.71% # Class of executed instruction
system.cpu01.op_class::SimdAlu                      0      0.00%     63.71% # Class of executed instruction
system.cpu01.op_class::SimdCmp                      0      0.00%     63.71% # Class of executed instruction
system.cpu01.op_class::SimdCvt                      0      0.00%     63.71% # Class of executed instruction
system.cpu01.op_class::SimdMisc                     0      0.00%     63.71% # Class of executed instruction
system.cpu01.op_class::SimdMult                     0      0.00%     63.71% # Class of executed instruction
system.cpu01.op_class::SimdMultAcc                  0      0.00%     63.71% # Class of executed instruction
system.cpu01.op_class::SimdShift                    0      0.00%     63.71% # Class of executed instruction
system.cpu01.op_class::SimdShiftAcc                 0      0.00%     63.71% # Class of executed instruction
system.cpu01.op_class::SimdSqrt                     0      0.00%     63.71% # Class of executed instruction
system.cpu01.op_class::SimdFloatAdd                 0      0.00%     63.71% # Class of executed instruction
system.cpu01.op_class::SimdFloatAlu                 0      0.00%     63.71% # Class of executed instruction
system.cpu01.op_class::SimdFloatCmp                 0      0.00%     63.71% # Class of executed instruction
system.cpu01.op_class::SimdFloatCvt                 0      0.00%     63.71% # Class of executed instruction
system.cpu01.op_class::SimdFloatDiv                 0      0.00%     63.71% # Class of executed instruction
system.cpu01.op_class::SimdFloatMisc                0      0.00%     63.71% # Class of executed instruction
system.cpu01.op_class::SimdFloatMult                0      0.00%     63.71% # Class of executed instruction
system.cpu01.op_class::SimdFloatMultAcc             0      0.00%     63.71% # Class of executed instruction
system.cpu01.op_class::SimdFloatSqrt                0      0.00%     63.71% # Class of executed instruction
system.cpu01.op_class::SimdAes                      0      0.00%     63.71% # Class of executed instruction
system.cpu01.op_class::SimdAesMix                   0      0.00%     63.71% # Class of executed instruction
system.cpu01.op_class::SimdSha1Hash                 0      0.00%     63.71% # Class of executed instruction
system.cpu01.op_class::SimdSha1Hash2                0      0.00%     63.71% # Class of executed instruction
system.cpu01.op_class::SimdSha256Hash               0      0.00%     63.71% # Class of executed instruction
system.cpu01.op_class::SimdSha256Hash2              0      0.00%     63.71% # Class of executed instruction
system.cpu01.op_class::SimdShaSigma2                0      0.00%     63.71% # Class of executed instruction
system.cpu01.op_class::SimdShaSigma3                0      0.00%     63.71% # Class of executed instruction
system.cpu01.op_class::MemRead                   1028     24.40%     88.11% # Class of executed instruction
system.cpu01.op_class::MemWrite                   489     11.61%     99.72% # Class of executed instruction
system.cpu01.op_class::FloatMemRead                 0      0.00%     99.72% # Class of executed instruction
system.cpu01.op_class::FloatMemWrite               12      0.28%    100.00% # Class of executed instruction
system.cpu01.op_class::IprAccess                    0      0.00%    100.00% # Class of executed instruction
system.cpu01.op_class::InstPrefetch                 0      0.00%    100.00% # Class of executed instruction
system.cpu01.op_class::total                     4213                       # Class of executed instruction
system.cpu01.pwrStateClkGateDist::samples            1                       # Distribution of time spent in the clock gated state
system.cpu01.pwrStateClkGateDist::mean      146473500                       # Distribution of time spent in the clock gated state
system.cpu01.pwrStateClkGateDist::1000-5e+10            1    100.00%    100.00% # Distribution of time spent in the clock gated state
system.cpu01.pwrStateClkGateDist::min_value    146473500                       # Distribution of time spent in the clock gated state
system.cpu01.pwrStateClkGateDist::max_value    146473500                       # Distribution of time spent in the clock gated state
system.cpu01.pwrStateClkGateDist::total             1                       # Distribution of time spent in the clock gated state
system.cpu01.pwrStateResidencyTicks::ON     572751000                       # Cumulative time (in ticks) in various power states
system.cpu01.pwrStateResidencyTicks::CLK_GATED    146473500                       # Cumulative time (in ticks) in various power states
system.cpu02.Branches                             790                       # Number of branches fetched
system.cpu02.committedInsts                      4203                       # Number of instructions committed
system.cpu02.committedOps                        4209                       # Number of ops (including micro ops) committed
system.cpu02.dtb.accesses                           0                       # DTB accesses
system.cpu02.dtb.hits                               0                       # DTB hits
system.cpu02.dtb.misses                             0                       # DTB misses
system.cpu02.dtb.pwrStateResidencyTicks::UNDEFINED    719224500                       # Cumulative time (in ticks) in various power states
system.cpu02.dtb.read_accesses                      0                       # DTB read accesses
system.cpu02.dtb.read_hits                          0                       # DTB read hits
system.cpu02.dtb.read_misses                        0                       # DTB read misses
system.cpu02.dtb.write_accesses                     0                       # DTB write accesses
system.cpu02.dtb.write_hits                         0                       # DTB write hits
system.cpu02.dtb.write_misses                       0                       # DTB write misses
system.cpu02.idle_fraction                   0.984071                       # Percentage of idle cycles
system.cpu02.itb.accesses                           0                       # DTB accesses
system.cpu02.itb.hits                               0                       # DTB hits
system.cpu02.itb.misses                             0                       # DTB misses
system.cpu02.itb.pwrStateResidencyTicks::UNDEFINED    719224500                       # Cumulative time (in ticks) in various power states
system.cpu02.itb.read_accesses                      0                       # DTB read accesses
system.cpu02.itb.read_hits                          0                       # DTB read hits
system.cpu02.itb.read_misses                        0                       # DTB read misses
system.cpu02.itb.write_accesses                     0                       # DTB write accesses
system.cpu02.itb.write_hits                         0                       # DTB write hits
system.cpu02.itb.write_misses                       0                       # DTB write misses
system.cpu02.not_idle_fraction               0.015929                       # Percentage of non-idle cycles
system.cpu02.numCycles                        1438449                       # number of cpu cycles simulated
system.cpu02.numPwrStateTransitions                 2                       # Number of power state transitions
system.cpu02.numWorkItemsCompleted                  0                       # number of work items this cpu completed
system.cpu02.numWorkItemsStarted                    0                       # number of work items this cpu started
system.cpu02.num_busy_cycles             22913.001968                       # Number of busy cycles
system.cpu02.num_conditional_control_insts          413                       # number of instructions that are conditional controls
system.cpu02.num_fp_alu_accesses                   12                       # Number of float alu accesses
system.cpu02.num_fp_insts                          12                       # number of float instructions
system.cpu02.num_fp_register_reads                 12                       # number of times the floating registers were read
system.cpu02.num_fp_register_writes                 0                       # number of times the floating registers were written
system.cpu02.num_func_calls                       377                       # number of times a function call or return occured
system.cpu02.num_idle_cycles             1415535.998032                       # Number of idle cycles
system.cpu02.num_int_alu_accesses                4135                       # Number of integer alu accesses
system.cpu02.num_int_insts                       4135                       # number of integer instructions
system.cpu02.num_int_register_reads              4768                       # number of times the integer registers were read
system.cpu02.num_int_register_writes             3058                       # number of times the integer registers were written
system.cpu02.num_load_insts                      1023                       # Number of load instructions
system.cpu02.num_mem_refs                        1528                       # number of memory refs
system.cpu02.num_store_insts                      505                       # Number of store instructions
system.cpu02.num_vec_alu_accesses                   0                       # Number of vector alu accesses
system.cpu02.num_vec_insts                          0                       # number of vector instructions
system.cpu02.num_vec_register_reads                 0                       # number of times the vector registers were read
system.cpu02.num_vec_register_writes                0                       # number of times the vector registers were written
system.cpu02.op_class::No_OpClass                  10      0.24%      0.24% # Class of executed instruction
system.cpu02.op_class::IntAlu                    2670     63.41%     63.64% # Class of executed instruction
system.cpu02.op_class::IntMult                      1      0.02%     63.67% # Class of executed instruction
system.cpu02.op_class::IntDiv                       2      0.05%     63.71% # Class of executed instruction
system.cpu02.op_class::FloatAdd                     0      0.00%     63.71% # Class of executed instruction
system.cpu02.op_class::FloatCmp                     0      0.00%     63.71% # Class of executed instruction
system.cpu02.op_class::FloatCvt                     0      0.00%     63.71% # Class of executed instruction
system.cpu02.op_class::FloatMult                    0      0.00%     63.71% # Class of executed instruction
system.cpu02.op_class::FloatMultAcc                 0      0.00%     63.71% # Class of executed instruction
system.cpu02.op_class::FloatDiv                     0      0.00%     63.71% # Class of executed instruction
system.cpu02.op_class::FloatMisc                    0      0.00%     63.71% # Class of executed instruction
system.cpu02.op_class::FloatSqrt                    0      0.00%     63.71% # Class of executed instruction
system.cpu02.op_class::SimdAdd                      0      0.00%     63.71% # Class of executed instruction
system.cpu02.op_class::SimdAddAcc                   0      0.00%     63.71% # Class of executed instruction
system.cpu02.op_class::SimdAlu                      0      0.00%     63.71% # Class of executed instruction
system.cpu02.op_class::SimdCmp                      0      0.00%     63.71% # Class of executed instruction
system.cpu02.op_class::SimdCvt                      0      0.00%     63.71% # Class of executed instruction
system.cpu02.op_class::SimdMisc                     0      0.00%     63.71% # Class of executed instruction
system.cpu02.op_class::SimdMult                     0      0.00%     63.71% # Class of executed instruction
system.cpu02.op_class::SimdMultAcc                  0      0.00%     63.71% # Class of executed instruction
system.cpu02.op_class::SimdShift                    0      0.00%     63.71% # Class of executed instruction
system.cpu02.op_class::SimdShiftAcc                 0      0.00%     63.71% # Class of executed instruction
system.cpu02.op_class::SimdSqrt                     0      0.00%     63.71% # Class of executed instruction
system.cpu02.op_class::SimdFloatAdd                 0      0.00%     63.71% # Class of executed instruction
system.cpu02.op_class::SimdFloatAlu                 0      0.00%     63.71% # Class of executed instruction
system.cpu02.op_class::SimdFloatCmp                 0      0.00%     63.71% # Class of executed instruction
system.cpu02.op_class::SimdFloatCvt                 0      0.00%     63.71% # Class of executed instruction
system.cpu02.op_class::SimdFloatDiv                 0      0.00%     63.71% # Class of executed instruction
system.cpu02.op_class::SimdFloatMisc                0      0.00%     63.71% # Class of executed instruction
system.cpu02.op_class::SimdFloatMult                0      0.00%     63.71% # Class of executed instruction
system.cpu02.op_class::SimdFloatMultAcc             0      0.00%     63.71% # Class of executed instruction
system.cpu02.op_class::SimdFloatSqrt                0      0.00%     63.71% # Class of executed instruction
system.cpu02.op_class::SimdAes                      0      0.00%     63.71% # Class of executed instruction
system.cpu02.op_class::SimdAesMix                   0      0.00%     63.71% # Class of executed instruction
system.cpu02.op_class::SimdSha1Hash                 0      0.00%     63.71% # Class of executed instruction
system.cpu02.op_class::SimdSha1Hash2                0      0.00%     63.71% # Class of executed instruction
system.cpu02.op_class::SimdSha256Hash               0      0.00%     63.71% # Class of executed instruction
system.cpu02.op_class::SimdSha256Hash2              0      0.00%     63.71% # Class of executed instruction
system.cpu02.op_class::SimdShaSigma2                0      0.00%     63.71% # Class of executed instruction
system.cpu02.op_class::SimdShaSigma3                0      0.00%     63.71% # Class of executed instruction
system.cpu02.op_class::MemRead                   1027     24.39%     88.10% # Class of executed instruction
system.cpu02.op_class::MemWrite                   489     11.61%     99.72% # Class of executed instruction
system.cpu02.op_class::FloatMemRead                 0      0.00%     99.72% # Class of executed instruction
system.cpu02.op_class::FloatMemWrite               12      0.28%    100.00% # Class of executed instruction
system.cpu02.op_class::IprAccess                    0      0.00%    100.00% # Class of executed instruction
system.cpu02.op_class::InstPrefetch                 0      0.00%    100.00% # Class of executed instruction
system.cpu02.op_class::total                     4211                       # Class of executed instruction
system.cpu02.pwrStateClkGateDist::samples            1                       # Distribution of time spent in the clock gated state
system.cpu02.pwrStateClkGateDist::mean      138262500                       # Distribution of time spent in the clock gated state
system.cpu02.pwrStateClkGateDist::1000-5e+10            1    100.00%    100.00% # Distribution of time spent in the clock gated state
system.cpu02.pwrStateClkGateDist::min_value    138262500                       # Distribution of time spent in the clock gated state
system.cpu02.pwrStateClkGateDist::max_value    138262500                       # Distribution of time spent in the clock gated state
system.cpu02.pwrStateClkGateDist::total             1                       # Distribution of time spent in the clock gated state
system.cpu02.pwrStateResidencyTicks::ON     580962000                       # Cumulative time (in ticks) in various power states
system.cpu02.pwrStateResidencyTicks::CLK_GATED    138262500                       # Cumulative time (in ticks) in various power states
system.cpu03.Branches                             796                       # Number of branches fetched
system.cpu03.committedInsts                      4203                       # Number of instructions committed
system.cpu03.committedOps                        4209                       # Number of ops (including micro ops) committed
system.cpu03.dtb.accesses                           0                       # DTB accesses
system.cpu03.dtb.hits                               0                       # DTB hits
system.cpu03.dtb.misses                             0                       # DTB misses
system.cpu03.dtb.pwrStateResidencyTicks::UNDEFINED    719224500                       # Cumulative time (in ticks) in various power states
system.cpu03.dtb.read_accesses                      0                       # DTB read accesses
system.cpu03.dtb.read_hits                          0                       # DTB read hits
system.cpu03.dtb.read_misses                        0                       # DTB read misses
system.cpu03.dtb.write_accesses                     0                       # DTB write accesses
system.cpu03.dtb.write_hits                         0                       # DTB write hits
system.cpu03.dtb.write_misses                       0                       # DTB write misses
system.cpu03.idle_fraction                   0.983867                       # Percentage of idle cycles
system.cpu03.itb.accesses                           0                       # DTB accesses
system.cpu03.itb.hits                               0                       # DTB hits
system.cpu03.itb.misses                             0                       # DTB misses
system.cpu03.itb.pwrStateResidencyTicks::UNDEFINED    719224500                       # Cumulative time (in ticks) in various power states
system.cpu03.itb.read_accesses                      0                       # DTB read accesses
system.cpu03.itb.read_hits                          0                       # DTB read hits
system.cpu03.itb.read_misses                        0                       # DTB read misses
system.cpu03.itb.write_accesses                     0                       # DTB write accesses
system.cpu03.itb.write_hits                         0                       # DTB write hits
system.cpu03.itb.write_misses                       0                       # DTB write misses
system.cpu03.not_idle_fraction               0.016133                       # Percentage of non-idle cycles
system.cpu03.numCycles                        1438448                       # number of cpu cycles simulated
system.cpu03.numPwrStateTransitions                 2                       # Number of power state transitions
system.cpu03.numWorkItemsCompleted                  0                       # number of work items this cpu completed
system.cpu03.numWorkItemsStarted                    0                       # number of work items this cpu started
system.cpu03.num_busy_cycles             23205.985835                       # Number of busy cycles
system.cpu03.num_conditional_control_insts          404                       # number of instructions that are conditional controls
system.cpu03.num_fp_alu_accesses                   12                       # Number of float alu accesses
system.cpu03.num_fp_insts                          12                       # number of float instructions
system.cpu03.num_fp_register_reads                 12                       # number of times the floating registers were read
system.cpu03.num_fp_register_writes                 0                       # number of times the floating registers were written
system.cpu03.num_func_calls                       392                       # number of times a function call or return occured
system.cpu03.num_idle_cycles             1415242.014165                       # Number of idle cycles
system.cpu03.num_int_alu_accesses                4121                       # Number of integer alu accesses
system.cpu03.num_int_insts                       4121                       # number of integer instructions
system.cpu03.num_int_register_reads              4756                       # number of times the integer registers were read
system.cpu03.num_int_register_writes             3051                       # number of times the integer registers were written
system.cpu03.num_load_insts                      1023                       # Number of load instructions
system.cpu03.num_mem_refs                        1526                       # number of memory refs
system.cpu03.num_store_insts                      503                       # Number of store instructions
system.cpu03.num_vec_alu_accesses                   0                       # Number of vector alu accesses
system.cpu03.num_vec_insts                          0                       # number of vector instructions
system.cpu03.num_vec_register_reads                 0                       # number of times the vector registers were read
system.cpu03.num_vec_register_writes                0                       # number of times the vector registers were written
system.cpu03.op_class::No_OpClass                  10      0.24%      0.24% # Class of executed instruction
system.cpu03.op_class::IntAlu                    2672     63.45%     63.69% # Class of executed instruction
system.cpu03.op_class::IntMult                      1      0.02%     63.71% # Class of executed instruction
system.cpu03.op_class::IntDiv                       2      0.05%     63.76% # Class of executed instruction
system.cpu03.op_class::FloatAdd                     0      0.00%     63.76% # Class of executed instruction
system.cpu03.op_class::FloatCmp                     0      0.00%     63.76% # Class of executed instruction
system.cpu03.op_class::FloatCvt                     0      0.00%     63.76% # Class of executed instruction
system.cpu03.op_class::FloatMult                    0      0.00%     63.76% # Class of executed instruction
system.cpu03.op_class::FloatMultAcc                 0      0.00%     63.76% # Class of executed instruction
system.cpu03.op_class::FloatDiv                     0      0.00%     63.76% # Class of executed instruction
system.cpu03.op_class::FloatMisc                    0      0.00%     63.76% # Class of executed instruction
system.cpu03.op_class::FloatSqrt                    0      0.00%     63.76% # Class of executed instruction
system.cpu03.op_class::SimdAdd                      0      0.00%     63.76% # Class of executed instruction
system.cpu03.op_class::SimdAddAcc                   0      0.00%     63.76% # Class of executed instruction
system.cpu03.op_class::SimdAlu                      0      0.00%     63.76% # Class of executed instruction
system.cpu03.op_class::SimdCmp                      0      0.00%     63.76% # Class of executed instruction
system.cpu03.op_class::SimdCvt                      0      0.00%     63.76% # Class of executed instruction
system.cpu03.op_class::SimdMisc                     0      0.00%     63.76% # Class of executed instruction
system.cpu03.op_class::SimdMult                     0      0.00%     63.76% # Class of executed instruction
system.cpu03.op_class::SimdMultAcc                  0      0.00%     63.76% # Class of executed instruction
system.cpu03.op_class::SimdShift                    0      0.00%     63.76% # Class of executed instruction
system.cpu03.op_class::SimdShiftAcc                 0      0.00%     63.76% # Class of executed instruction
system.cpu03.op_class::SimdSqrt                     0      0.00%     63.76% # Class of executed instruction
system.cpu03.op_class::SimdFloatAdd                 0      0.00%     63.76% # Class of executed instruction
system.cpu03.op_class::SimdFloatAlu                 0      0.00%     63.76% # Class of executed instruction
system.cpu03.op_class::SimdFloatCmp                 0      0.00%     63.76% # Class of executed instruction
system.cpu03.op_class::SimdFloatCvt                 0      0.00%     63.76% # Class of executed instruction
system.cpu03.op_class::SimdFloatDiv                 0      0.00%     63.76% # Class of executed instruction
system.cpu03.op_class::SimdFloatMisc                0      0.00%     63.76% # Class of executed instruction
system.cpu03.op_class::SimdFloatMult                0      0.00%     63.76% # Class of executed instruction
system.cpu03.op_class::SimdFloatMultAcc             0      0.00%     63.76% # Class of executed instruction
system.cpu03.op_class::SimdFloatSqrt                0      0.00%     63.76% # Class of executed instruction
system.cpu03.op_class::SimdAes                      0      0.00%     63.76% # Class of executed instruction
system.cpu03.op_class::SimdAesMix                   0      0.00%     63.76% # Class of executed instruction
system.cpu03.op_class::SimdSha1Hash                 0      0.00%     63.76% # Class of executed instruction
system.cpu03.op_class::SimdSha1Hash2                0      0.00%     63.76% # Class of executed instruction
system.cpu03.op_class::SimdSha256Hash               0      0.00%     63.76% # Class of executed instruction
system.cpu03.op_class::SimdSha256Hash2              0      0.00%     63.76% # Class of executed instruction
system.cpu03.op_class::SimdShaSigma2                0      0.00%     63.76% # Class of executed instruction
system.cpu03.op_class::SimdShaSigma3                0      0.00%     63.76% # Class of executed instruction
system.cpu03.op_class::MemRead                   1027     24.39%     88.15% # Class of executed instruction
system.cpu03.op_class::MemWrite                   487     11.56%     99.72% # Class of executed instruction
system.cpu03.op_class::FloatMemRead                 0      0.00%     99.72% # Class of executed instruction
system.cpu03.op_class::FloatMemWrite               12      0.28%    100.00% # Class of executed instruction
system.cpu03.op_class::IprAccess                    0      0.00%    100.00% # Class of executed instruction
system.cpu03.op_class::InstPrefetch                 0      0.00%    100.00% # Class of executed instruction
system.cpu03.op_class::total                     4211                       # Class of executed instruction
system.cpu03.pwrStateClkGateDist::samples            1                       # Distribution of time spent in the clock gated state
system.cpu03.pwrStateClkGateDist::mean      127875500                       # Distribution of time spent in the clock gated state
system.cpu03.pwrStateClkGateDist::1000-5e+10            1    100.00%    100.00% # Distribution of time spent in the clock gated state
system.cpu03.pwrStateClkGateDist::min_value    127875500                       # Distribution of time spent in the clock gated state
system.cpu03.pwrStateClkGateDist::max_value    127875500                       # Distribution of time spent in the clock gated state
system.cpu03.pwrStateClkGateDist::total             1                       # Distribution of time spent in the clock gated state
system.cpu03.pwrStateResidencyTicks::ON     591349000                       # Cumulative time (in ticks) in various power states
system.cpu03.pwrStateResidencyTicks::CLK_GATED    127875500                       # Cumulative time (in ticks) in various power states
system.cpu04.Branches                             783                       # Number of branches fetched
system.cpu04.committedInsts                      4135                       # Number of instructions committed
system.cpu04.committedOps                        4141                       # Number of ops (including micro ops) committed
system.cpu04.dtb.accesses                           0                       # DTB accesses
system.cpu04.dtb.hits                               0                       # DTB hits
system.cpu04.dtb.misses                             0                       # DTB misses
system.cpu04.dtb.pwrStateResidencyTicks::UNDEFINED    719224500                       # Cumulative time (in ticks) in various power states
system.cpu04.dtb.read_accesses                      0                       # DTB read accesses
system.cpu04.dtb.read_hits                          0                       # DTB read hits
system.cpu04.dtb.read_misses                        0                       # DTB read misses
system.cpu04.dtb.write_accesses                     0                       # DTB write accesses
system.cpu04.dtb.write_hits                         0                       # DTB write hits
system.cpu04.dtb.write_misses                       0                       # DTB write misses
system.cpu04.idle_fraction                   0.984103                       # Percentage of idle cycles
system.cpu04.itb.accesses                           0                       # DTB accesses
system.cpu04.itb.hits                               0                       # DTB hits
system.cpu04.itb.misses                             0                       # DTB misses
system.cpu04.itb.pwrStateResidencyTicks::UNDEFINED    719224500                       # Cumulative time (in ticks) in various power states
system.cpu04.itb.read_accesses                      0                       # DTB read accesses
system.cpu04.itb.read_hits                          0                       # DTB read hits
system.cpu04.itb.read_misses                        0                       # DTB read misses
system.cpu04.itb.write_accesses                     0                       # DTB write accesses
system.cpu04.itb.write_hits                         0                       # DTB write hits
system.cpu04.itb.write_misses                       0                       # DTB write misses
system.cpu04.not_idle_fraction               0.015897                       # Percentage of non-idle cycles
system.cpu04.numCycles                        1438449                       # number of cpu cycles simulated
system.cpu04.numPwrStateTransitions                 2                       # Number of power state transitions
system.cpu04.numWorkItemsCompleted                  0                       # number of work items this cpu completed
system.cpu04.numWorkItemsStarted                    0                       # number of work items this cpu started
system.cpu04.num_busy_cycles             22867.001968                       # Number of busy cycles
system.cpu04.num_conditional_control_insts          396                       # number of instructions that are conditional controls
system.cpu04.num_fp_alu_accesses                   12                       # Number of float alu accesses
system.cpu04.num_fp_insts                          12                       # number of float instructions
system.cpu04.num_fp_register_reads                 12                       # number of times the floating registers were read
system.cpu04.num_fp_register_writes                 0                       # number of times the floating registers were written
system.cpu04.num_func_calls                       387                       # number of times a function call or return occured
system.cpu04.num_idle_cycles             1415581.998032                       # Number of idle cycles
system.cpu04.num_int_alu_accesses                4053                       # Number of integer alu accesses
system.cpu04.num_int_insts                       4053                       # number of integer instructions
system.cpu04.num_int_register_reads              4678                       # number of times the integer registers were read
system.cpu04.num_int_register_writes             3001                       # number of times the integer registers were written
system.cpu04.num_load_insts                      1007                       # Number of load instructions
system.cpu04.num_mem_refs                        1503                       # number of memory refs
system.cpu04.num_store_insts                      496                       # Number of store instructions
system.cpu04.num_vec_alu_accesses                   0                       # Number of vector alu accesses
system.cpu04.num_vec_insts                          0                       # number of vector instructions
system.cpu04.num_vec_register_reads                 0                       # number of times the vector registers were read
system.cpu04.num_vec_register_writes                0                       # number of times the vector registers were written
system.cpu04.op_class::No_OpClass                  10      0.24%      0.24% # Class of executed instruction
system.cpu04.op_class::IntAlu                    2627     63.41%     63.65% # Class of executed instruction
system.cpu04.op_class::IntMult                      1      0.02%     63.67% # Class of executed instruction
system.cpu04.op_class::IntDiv                       2      0.05%     63.72% # Class of executed instruction
system.cpu04.op_class::FloatAdd                     0      0.00%     63.72% # Class of executed instruction
system.cpu04.op_class::FloatCmp                     0      0.00%     63.72% # Class of executed instruction
system.cpu04.op_class::FloatCvt                     0      0.00%     63.72% # Class of executed instruction
system.cpu04.op_class::FloatMult                    0      0.00%     63.72% # Class of executed instruction
system.cpu04.op_class::FloatMultAcc                 0      0.00%     63.72% # Class of executed instruction
system.cpu04.op_class::FloatDiv                     0      0.00%     63.72% # Class of executed instruction
system.cpu04.op_class::FloatMisc                    0      0.00%     63.72% # Class of executed instruction
system.cpu04.op_class::FloatSqrt                    0      0.00%     63.72% # Class of executed instruction
system.cpu04.op_class::SimdAdd                      0      0.00%     63.72% # Class of executed instruction
system.cpu04.op_class::SimdAddAcc                   0      0.00%     63.72% # Class of executed instruction
system.cpu04.op_class::SimdAlu                      0      0.00%     63.72% # Class of executed instruction
system.cpu04.op_class::SimdCmp                      0      0.00%     63.72% # Class of executed instruction
system.cpu04.op_class::SimdCvt                      0      0.00%     63.72% # Class of executed instruction
system.cpu04.op_class::SimdMisc                     0      0.00%     63.72% # Class of executed instruction
system.cpu04.op_class::SimdMult                     0      0.00%     63.72% # Class of executed instruction
system.cpu04.op_class::SimdMultAcc                  0      0.00%     63.72% # Class of executed instruction
system.cpu04.op_class::SimdShift                    0      0.00%     63.72% # Class of executed instruction
system.cpu04.op_class::SimdShiftAcc                 0      0.00%     63.72% # Class of executed instruction
system.cpu04.op_class::SimdSqrt                     0      0.00%     63.72% # Class of executed instruction
system.cpu04.op_class::SimdFloatAdd                 0      0.00%     63.72% # Class of executed instruction
system.cpu04.op_class::SimdFloatAlu                 0      0.00%     63.72% # Class of executed instruction
system.cpu04.op_class::SimdFloatCmp                 0      0.00%     63.72% # Class of executed instruction
system.cpu04.op_class::SimdFloatCvt                 0      0.00%     63.72% # Class of executed instruction
system.cpu04.op_class::SimdFloatDiv                 0      0.00%     63.72% # Class of executed instruction
system.cpu04.op_class::SimdFloatMisc                0      0.00%     63.72% # Class of executed instruction
system.cpu04.op_class::SimdFloatMult                0      0.00%     63.72% # Class of executed instruction
system.cpu04.op_class::SimdFloatMultAcc             0      0.00%     63.72% # Class of executed instruction
system.cpu04.op_class::SimdFloatSqrt                0      0.00%     63.72% # Class of executed instruction
system.cpu04.op_class::SimdAes                      0      0.00%     63.72% # Class of executed instruction
system.cpu04.op_class::SimdAesMix                   0      0.00%     63.72% # Class of executed instruction
system.cpu04.op_class::SimdSha1Hash                 0      0.00%     63.72% # Class of executed instruction
system.cpu04.op_class::SimdSha1Hash2                0      0.00%     63.72% # Class of executed instruction
system.cpu04.op_class::SimdSha256Hash               0      0.00%     63.72% # Class of executed instruction
system.cpu04.op_class::SimdSha256Hash2              0      0.00%     63.72% # Class of executed instruction
system.cpu04.op_class::SimdShaSigma2                0      0.00%     63.72% # Class of executed instruction
system.cpu04.op_class::SimdShaSigma3                0      0.00%     63.72% # Class of executed instruction
system.cpu04.op_class::MemRead                   1011     24.40%     88.12% # Class of executed instruction
system.cpu04.op_class::MemWrite                   480     11.59%     99.71% # Class of executed instruction
system.cpu04.op_class::FloatMemRead                 0      0.00%     99.71% # Class of executed instruction
system.cpu04.op_class::FloatMemWrite               12      0.29%    100.00% # Class of executed instruction
system.cpu04.op_class::IprAccess                    0      0.00%    100.00% # Class of executed instruction
system.cpu04.op_class::InstPrefetch                 0      0.00%    100.00% # Class of executed instruction
system.cpu04.op_class::total                     4143                       # Class of executed instruction
system.cpu04.pwrStateClkGateDist::samples            1                       # Distribution of time spent in the clock gated state
system.cpu04.pwrStateClkGateDist::mean      115914500                       # Distribution of time spent in the clock gated state
system.cpu04.pwrStateClkGateDist::1000-5e+10            1    100.00%    100.00% # Distribution of time spent in the clock gated state
system.cpu04.pwrStateClkGateDist::min_value    115914500                       # Distribution of time spent in the clock gated state
system.cpu04.pwrStateClkGateDist::max_value    115914500                       # Distribution of time spent in the clock gated state
system.cpu04.pwrStateClkGateDist::total             1                       # Distribution of time spent in the clock gated state
system.cpu04.pwrStateResidencyTicks::ON     603310000                       # Cumulative time (in ticks) in various power states
system.cpu04.pwrStateResidencyTicks::CLK_GATED    115914500                       # Cumulative time (in ticks) in various power states
system.cpu05.Branches                             796                       # Number of branches fetched
system.cpu05.committedInsts                      4209                       # Number of instructions committed
system.cpu05.committedOps                        4215                       # Number of ops (including micro ops) committed
system.cpu05.dtb.accesses                           0                       # DTB accesses
system.cpu05.dtb.hits                               0                       # DTB hits
system.cpu05.dtb.misses                             0                       # DTB misses
system.cpu05.dtb.pwrStateResidencyTicks::UNDEFINED    719224500                       # Cumulative time (in ticks) in various power states
system.cpu05.dtb.read_accesses                      0                       # DTB read accesses
system.cpu05.dtb.read_hits                          0                       # DTB read hits
system.cpu05.dtb.read_misses                        0                       # DTB read misses
system.cpu05.dtb.write_accesses                     0                       # DTB write accesses
system.cpu05.dtb.write_hits                         0                       # DTB write hits
system.cpu05.dtb.write_misses                       0                       # DTB write misses
system.cpu05.idle_fraction                   0.984472                       # Percentage of idle cycles
system.cpu05.itb.accesses                           0                       # DTB accesses
system.cpu05.itb.hits                               0                       # DTB hits
system.cpu05.itb.misses                             0                       # DTB misses
system.cpu05.itb.pwrStateResidencyTicks::UNDEFINED    719224500                       # Cumulative time (in ticks) in various power states
system.cpu05.itb.read_accesses                      0                       # DTB read accesses
system.cpu05.itb.read_hits                          0                       # DTB read hits
system.cpu05.itb.read_misses                        0                       # DTB read misses
system.cpu05.itb.write_accesses                     0                       # DTB write accesses
system.cpu05.itb.write_hits                         0                       # DTB write hits
system.cpu05.itb.write_misses                       0                       # DTB write misses
system.cpu05.not_idle_fraction               0.015528                       # Percentage of non-idle cycles
system.cpu05.numCycles                        1438449                       # number of cpu cycles simulated
system.cpu05.numPwrStateTransitions                 2                       # Number of power state transitions
system.cpu05.numWorkItemsCompleted                  0                       # number of work items this cpu completed
system.cpu05.numWorkItemsStarted                    0                       # number of work items this cpu started
system.cpu05.num_busy_cycles             22336.001969                       # Number of busy cycles
system.cpu05.num_conditional_control_insts          406                       # number of instructions that are conditional controls
system.cpu05.num_fp_alu_accesses                   12                       # Number of float alu accesses
system.cpu05.num_fp_insts                          12                       # number of float instructions
system.cpu05.num_fp_register_reads                 12                       # number of times the floating registers were read
system.cpu05.num_fp_register_writes                 0                       # number of times the floating registers were written
system.cpu05.num_func_calls                       390                       # number of times a function call or return occured
system.cpu05.num_idle_cycles             1416112.998031                       # Number of idle cycles
system.cpu05.num_int_alu_accesses                4129                       # Number of integer alu accesses
system.cpu05.num_int_insts                       4129                       # number of integer instructions
system.cpu05.num_int_register_reads              4765                       # number of times the integer registers were read
system.cpu05.num_int_register_writes             3057                       # number of times the integer registers were written
system.cpu05.num_load_insts                      1025                       # Number of load instructions
system.cpu05.num_mem_refs                        1529                       # number of memory refs
system.cpu05.num_store_insts                      504                       # Number of store instructions
system.cpu05.num_vec_alu_accesses                   0                       # Number of vector alu accesses
system.cpu05.num_vec_insts                          0                       # number of vector instructions
system.cpu05.num_vec_register_reads                 0                       # number of times the vector registers were read
system.cpu05.num_vec_register_writes                0                       # number of times the vector registers were written
system.cpu05.op_class::No_OpClass                  10      0.24%      0.24% # Class of executed instruction
system.cpu05.op_class::IntAlu                    2675     63.43%     63.67% # Class of executed instruction
system.cpu05.op_class::IntMult                      1      0.02%     63.69% # Class of executed instruction
system.cpu05.op_class::IntDiv                       2      0.05%     63.74% # Class of executed instruction
system.cpu05.op_class::FloatAdd                     0      0.00%     63.74% # Class of executed instruction
system.cpu05.op_class::FloatCmp                     0      0.00%     63.74% # Class of executed instruction
system.cpu05.op_class::FloatCvt                     0      0.00%     63.74% # Class of executed instruction
system.cpu05.op_class::FloatMult                    0      0.00%     63.74% # Class of executed instruction
system.cpu05.op_class::FloatMultAcc                 0      0.00%     63.74% # Class of executed instruction
system.cpu05.op_class::FloatDiv                     0      0.00%     63.74% # Class of executed instruction
system.cpu05.op_class::FloatMisc                    0      0.00%     63.74% # Class of executed instruction
system.cpu05.op_class::FloatSqrt                    0      0.00%     63.74% # Class of executed instruction
system.cpu05.op_class::SimdAdd                      0      0.00%     63.74% # Class of executed instruction
system.cpu05.op_class::SimdAddAcc                   0      0.00%     63.74% # Class of executed instruction
system.cpu05.op_class::SimdAlu                      0      0.00%     63.74% # Class of executed instruction
system.cpu05.op_class::SimdCmp                      0      0.00%     63.74% # Class of executed instruction
system.cpu05.op_class::SimdCvt                      0      0.00%     63.74% # Class of executed instruction
system.cpu05.op_class::SimdMisc                     0      0.00%     63.74% # Class of executed instruction
system.cpu05.op_class::SimdMult                     0      0.00%     63.74% # Class of executed instruction
system.cpu05.op_class::SimdMultAcc                  0      0.00%     63.74% # Class of executed instruction
system.cpu05.op_class::SimdShift                    0      0.00%     63.74% # Class of executed instruction
system.cpu05.op_class::SimdShiftAcc                 0      0.00%     63.74% # Class of executed instruction
system.cpu05.op_class::SimdSqrt                     0      0.00%     63.74% # Class of executed instruction
system.cpu05.op_class::SimdFloatAdd                 0      0.00%     63.74% # Class of executed instruction
system.cpu05.op_class::SimdFloatAlu                 0      0.00%     63.74% # Class of executed instruction
system.cpu05.op_class::SimdFloatCmp                 0      0.00%     63.74% # Class of executed instruction
system.cpu05.op_class::SimdFloatCvt                 0      0.00%     63.74% # Class of executed instruction
system.cpu05.op_class::SimdFloatDiv                 0      0.00%     63.74% # Class of executed instruction
system.cpu05.op_class::SimdFloatMisc                0      0.00%     63.74% # Class of executed instruction
system.cpu05.op_class::SimdFloatMult                0      0.00%     63.74% # Class of executed instruction
system.cpu05.op_class::SimdFloatMultAcc             0      0.00%     63.74% # Class of executed instruction
system.cpu05.op_class::SimdFloatSqrt                0      0.00%     63.74% # Class of executed instruction
system.cpu05.op_class::SimdAes                      0      0.00%     63.74% # Class of executed instruction
system.cpu05.op_class::SimdAesMix                   0      0.00%     63.74% # Class of executed instruction
system.cpu05.op_class::SimdSha1Hash                 0      0.00%     63.74% # Class of executed instruction
system.cpu05.op_class::SimdSha1Hash2                0      0.00%     63.74% # Class of executed instruction
system.cpu05.op_class::SimdSha256Hash               0      0.00%     63.74% # Class of executed instruction
system.cpu05.op_class::SimdSha256Hash2              0      0.00%     63.74% # Class of executed instruction
system.cpu05.op_class::SimdShaSigma2                0      0.00%     63.74% # Class of executed instruction
system.cpu05.op_class::SimdShaSigma3                0      0.00%     63.74% # Class of executed instruction
system.cpu05.op_class::MemRead                   1029     24.40%     88.14% # Class of executed instruction
system.cpu05.op_class::MemWrite                   488     11.57%     99.72% # Class of executed instruction
system.cpu05.op_class::FloatMemRead                 0      0.00%     99.72% # Class of executed instruction
system.cpu05.op_class::FloatMemWrite               12      0.28%    100.00% # Class of executed instruction
system.cpu05.op_class::IprAccess                    0      0.00%    100.00% # Class of executed instruction
system.cpu05.op_class::InstPrefetch                 0      0.00%    100.00% # Class of executed instruction
system.cpu05.op_class::total                     4217                       # Class of executed instruction
system.cpu05.pwrStateClkGateDist::samples            1                       # Distribution of time spent in the clock gated state
system.cpu05.pwrStateClkGateDist::mean      106151000                       # Distribution of time spent in the clock gated state
system.cpu05.pwrStateClkGateDist::1000-5e+10            1    100.00%    100.00% # Distribution of time spent in the clock gated state
system.cpu05.pwrStateClkGateDist::min_value    106151000                       # Distribution of time spent in the clock gated state
system.cpu05.pwrStateClkGateDist::max_value    106151000                       # Distribution of time spent in the clock gated state
system.cpu05.pwrStateClkGateDist::total             1                       # Distribution of time spent in the clock gated state
system.cpu05.pwrStateResidencyTicks::ON     613073500                       # Cumulative time (in ticks) in various power states
system.cpu05.pwrStateResidencyTicks::CLK_GATED    106151000                       # Cumulative time (in ticks) in various power states
system.cpu06.Branches                             787                       # Number of branches fetched
system.cpu06.committedInsts                      4150                       # Number of instructions committed
system.cpu06.committedOps                        4156                       # Number of ops (including micro ops) committed
system.cpu06.dtb.accesses                           0                       # DTB accesses
system.cpu06.dtb.hits                               0                       # DTB hits
system.cpu06.dtb.misses                             0                       # DTB misses
system.cpu06.dtb.pwrStateResidencyTicks::UNDEFINED    719224500                       # Cumulative time (in ticks) in various power states
system.cpu06.dtb.read_accesses                      0                       # DTB read accesses
system.cpu06.dtb.read_hits                          0                       # DTB read hits
system.cpu06.dtb.read_misses                        0                       # DTB read misses
system.cpu06.dtb.write_accesses                     0                       # DTB write accesses
system.cpu06.dtb.write_hits                         0                       # DTB write hits
system.cpu06.dtb.write_misses                       0                       # DTB write misses
system.cpu06.idle_fraction                   0.984567                       # Percentage of idle cycles
system.cpu06.itb.accesses                           0                       # DTB accesses
system.cpu06.itb.hits                               0                       # DTB hits
system.cpu06.itb.misses                             0                       # DTB misses
system.cpu06.itb.pwrStateResidencyTicks::UNDEFINED    719224500                       # Cumulative time (in ticks) in various power states
system.cpu06.itb.read_accesses                      0                       # DTB read accesses
system.cpu06.itb.read_hits                          0                       # DTB read hits
system.cpu06.itb.read_misses                        0                       # DTB read misses
system.cpu06.itb.write_accesses                     0                       # DTB write accesses
system.cpu06.itb.write_hits                         0                       # DTB write hits
system.cpu06.itb.write_misses                       0                       # DTB write misses
system.cpu06.not_idle_fraction               0.015433                       # Percentage of non-idle cycles
system.cpu06.numCycles                        1438448                       # number of cpu cycles simulated
system.cpu06.numPwrStateTransitions                 2                       # Number of power state transitions
system.cpu06.numWorkItemsCompleted                  0                       # number of work items this cpu completed
system.cpu06.numWorkItemsStarted                    0                       # number of work items this cpu started
system.cpu06.num_busy_cycles             22199.986536                       # Number of busy cycles
system.cpu06.num_conditional_control_insts          399                       # number of instructions that are conditional controls
system.cpu06.num_fp_alu_accesses                   12                       # Number of float alu accesses
system.cpu06.num_fp_insts                          12                       # number of float instructions
system.cpu06.num_fp_register_reads                 12                       # number of times the floating registers were read
system.cpu06.num_fp_register_writes                 0                       # number of times the floating registers were written
system.cpu06.num_func_calls                       388                       # number of times a function call or return occured
system.cpu06.num_idle_cycles             1416248.013464                       # Number of idle cycles
system.cpu06.num_int_alu_accesses                4068                       # Number of integer alu accesses
system.cpu06.num_int_insts                       4068                       # number of integer instructions
system.cpu06.num_int_register_reads              4695                       # number of times the integer registers were read
system.cpu06.num_int_register_writes             3011                       # number of times the integer registers were written
system.cpu06.num_load_insts                      1011                       # Number of load instructions
system.cpu06.num_mem_refs                        1508                       # number of memory refs
system.cpu06.num_store_insts                      497                       # Number of store instructions
system.cpu06.num_vec_alu_accesses                   0                       # Number of vector alu accesses
system.cpu06.num_vec_insts                          0                       # number of vector instructions
system.cpu06.num_vec_register_reads                 0                       # number of times the vector registers were read
system.cpu06.num_vec_register_writes                0                       # number of times the vector registers were written
system.cpu06.op_class::No_OpClass                  10      0.24%      0.24% # Class of executed instruction
system.cpu06.op_class::IntAlu                    2637     63.42%     63.66% # Class of executed instruction
system.cpu06.op_class::IntMult                      1      0.02%     63.68% # Class of executed instruction
system.cpu06.op_class::IntDiv                       2      0.05%     63.73% # Class of executed instruction
system.cpu06.op_class::FloatAdd                     0      0.00%     63.73% # Class of executed instruction
system.cpu06.op_class::FloatCmp                     0      0.00%     63.73% # Class of executed instruction
system.cpu06.op_class::FloatCvt                     0      0.00%     63.73% # Class of executed instruction
system.cpu06.op_class::FloatMult                    0      0.00%     63.73% # Class of executed instruction
system.cpu06.op_class::FloatMultAcc                 0      0.00%     63.73% # Class of executed instruction
system.cpu06.op_class::FloatDiv                     0      0.00%     63.73% # Class of executed instruction
system.cpu06.op_class::FloatMisc                    0      0.00%     63.73% # Class of executed instruction
system.cpu06.op_class::FloatSqrt                    0      0.00%     63.73% # Class of executed instruction
system.cpu06.op_class::SimdAdd                      0      0.00%     63.73% # Class of executed instruction
system.cpu06.op_class::SimdAddAcc                   0      0.00%     63.73% # Class of executed instruction
system.cpu06.op_class::SimdAlu                      0      0.00%     63.73% # Class of executed instruction
system.cpu06.op_class::SimdCmp                      0      0.00%     63.73% # Class of executed instruction
system.cpu06.op_class::SimdCvt                      0      0.00%     63.73% # Class of executed instruction
system.cpu06.op_class::SimdMisc                     0      0.00%     63.73% # Class of executed instruction
system.cpu06.op_class::SimdMult                     0      0.00%     63.73% # Class of executed instruction
system.cpu06.op_class::SimdMultAcc                  0      0.00%     63.73% # Class of executed instruction
system.cpu06.op_class::SimdShift                    0      0.00%     63.73% # Class of executed instruction
system.cpu06.op_class::SimdShiftAcc                 0      0.00%     63.73% # Class of executed instruction
system.cpu06.op_class::SimdSqrt                     0      0.00%     63.73% # Class of executed instruction
system.cpu06.op_class::SimdFloatAdd                 0      0.00%     63.73% # Class of executed instruction
system.cpu06.op_class::SimdFloatAlu                 0      0.00%     63.73% # Class of executed instruction
system.cpu06.op_class::SimdFloatCmp                 0      0.00%     63.73% # Class of executed instruction
system.cpu06.op_class::SimdFloatCvt                 0      0.00%     63.73% # Class of executed instruction
system.cpu06.op_class::SimdFloatDiv                 0      0.00%     63.73% # Class of executed instruction
system.cpu06.op_class::SimdFloatMisc                0      0.00%     63.73% # Class of executed instruction
system.cpu06.op_class::SimdFloatMult                0      0.00%     63.73% # Class of executed instruction
system.cpu06.op_class::SimdFloatMultAcc             0      0.00%     63.73% # Class of executed instruction
system.cpu06.op_class::SimdFloatSqrt                0      0.00%     63.73% # Class of executed instruction
system.cpu06.op_class::SimdAes                      0      0.00%     63.73% # Class of executed instruction
system.cpu06.op_class::SimdAesMix                   0      0.00%     63.73% # Class of executed instruction
system.cpu06.op_class::SimdSha1Hash                 0      0.00%     63.73% # Class of executed instruction
system.cpu06.op_class::SimdSha1Hash2                0      0.00%     63.73% # Class of executed instruction
system.cpu06.op_class::SimdSha256Hash               0      0.00%     63.73% # Class of executed instruction
system.cpu06.op_class::SimdSha256Hash2              0      0.00%     63.73% # Class of executed instruction
system.cpu06.op_class::SimdShaSigma2                0      0.00%     63.73% # Class of executed instruction
system.cpu06.op_class::SimdShaSigma3                0      0.00%     63.73% # Class of executed instruction
system.cpu06.op_class::MemRead                   1015     24.41%     88.14% # Class of executed instruction
system.cpu06.op_class::MemWrite                   481     11.57%     99.71% # Class of executed instruction
system.cpu06.op_class::FloatMemRead                 0      0.00%     99.71% # Class of executed instruction
system.cpu06.op_class::FloatMemWrite               12      0.29%    100.00% # Class of executed instruction
system.cpu06.op_class::IprAccess                    0      0.00%    100.00% # Class of executed instruction
system.cpu06.op_class::InstPrefetch                 0      0.00%    100.00% # Class of executed instruction
system.cpu06.op_class::total                     4158                       # Class of executed instruction
system.cpu06.pwrStateClkGateDist::samples            1                       # Distribution of time spent in the clock gated state
system.cpu06.pwrStateClkGateDist::mean       96014000                       # Distribution of time spent in the clock gated state
system.cpu06.pwrStateClkGateDist::1000-5e+10            1    100.00%    100.00% # Distribution of time spent in the clock gated state
system.cpu06.pwrStateClkGateDist::min_value     96014000                       # Distribution of time spent in the clock gated state
[...]
system.ruby.network.int_links39.credit_link.pwrStateResidencyTicks::UNDEFINED    719224500                       # Cumulative time (in ticks) in various power states
system.ruby.network.int_links39.network_link.pwrStateResidencyTicks::UNDEFINED    719224500                       # Cumulative time (in ticks) in various power states
system.ruby.network.int_links40.credit_link.pwrStateResidencyTicks::UNDEFINED    719224500                       # Cumulative time (in ticks) in various power states
system.ruby.network.int_links40.network_link.pwrStateResidencyTicks::UNDEFINED    719224500                       # Cumulative time (in ticks) in various power states
system.ruby.network.int_links41.credit_link.pwrStateResidencyTicks::UNDEFINED    719224500                       # Cumulative time (in ticks) in various power states
system.ruby.network.int_links41.network_link.pwrStateResidencyTicks::UNDEFINED    719224500                       # Cumulative time (in ticks) in various power states
system.ruby.network.int_links42.credit_link.pwrStateResidencyTicks::UNDEFINED    719224500                       # Cumulative time (in ticks) in various power states
system.ruby.network.int_links42.network_link.pwrStateResidencyTicks::UNDEFINED    719224500                       # Cumulative time (in ticks) in various power states
system.ruby.network.int_links43.credit_link.pwrStateResidencyTicks::UNDEFINED    719224500                       # Cumulative time (in ticks) in various power states
system.ruby.network.int_links43.network_link.pwrStateResidencyTicks::UNDEFINED    719224500                       # Cumulative time (in ticks) in various power states
system.ruby.network.int_links44.credit_link.pwrStateResidencyTicks::UNDEFINED    719224500                       # Cumulative time (in ticks) in various power states
system.ruby.network.int_links44.network_link.pwrStateResidencyTicks::UNDEFINED    719224500                       # Cumulative time (in ticks) in various power states
system.ruby.network.int_links45.credit_link.pwrStateResidencyTicks::UNDEFINED    719224500                       # Cumulative time (in ticks) in various power states
system.ruby.network.int_links45.network_link.pwrStateResidencyTicks::UNDEFINED    719224500                       # Cumulative time (in ticks) in various power states
system.ruby.network.int_links46.credit_link.pwrStateResidencyTicks::UNDEFINED    719224500                       # Cumulative time (in ticks) in various power states
system.ruby.network.int_links46.network_link.pwrStateResidencyTicks::UNDEFINED    719224500                       # Cumulative time (in ticks) in various power states
system.ruby.network.int_links47.credit_link.pwrStateResidencyTicks::UNDEFINED    719224500                       # Cumulative time (in ticks) in various power states
system.ruby.network.int_links47.network_link.pwrStateResidencyTicks::UNDEFINED    719224500                       # Cumulative time (in ticks) in various power states
system.ruby.network.netifs00.pwrStateResidencyTicks::UNDEFINED    719224500                       # Cumulative time (in ticks) in various power states
system.ruby.network.netifs01.pwrStateResidencyTicks::UNDEFINED    719224500                       # Cumulative time (in ticks) in various power states
system.ruby.network.netifs02.pwrStateResidencyTicks::UNDEFINED    719224500                       # Cumulative time (in ticks) in various power states
system.ruby.network.netifs03.pwrStateResidencyTicks::UNDEFINED    719224500                       # Cumulative time (in ticks) in various power states
system.ruby.network.netifs04.pwrStateResidencyTicks::UNDEFINED    719224500                       # Cumulative time (in ticks) in various power states
system.ruby.network.netifs05.pwrStateResidencyTicks::UNDEFINED    719224500                       # Cumulative time (in ticks) in various power states
system.ruby.network.netifs06.pwrStateResidencyTicks::UNDEFINED    719224500                       # Cumulative time (in ticks) in various power states
system.ruby.network.netifs07.pwrStateResidencyTicks::UNDEFINED    719224500                       # Cumulative time (in ticks) in various power states
system.ruby.network.netifs08.pwrStateResidencyTicks::UNDEFINED    719224500                       # Cumulative time (in ticks) in various power states
system.ruby.network.netifs09.pwrStateResidencyTicks::UNDEFINED    719224500                       # Cumulative time (in ticks) in various power states
system.ruby.network.netifs10.pwrStateResidencyTicks::UNDEFINED    719224500                       # Cumulative time (in ticks) in various power states
system.ruby.network.netifs11.pwrStateResidencyTicks::UNDEFINED    719224500                       # Cumulative time (in ticks) in various power states
system.ruby.network.netifs12.pwrStateResidencyTicks::UNDEFINED    719224500                       # Cumulative time (in ticks) in various power states
system.ruby.network.netifs13.pwrStateResidencyTicks::UNDEFINED    719224500                       # Cumulative time (in ticks) in various power states
system.ruby.network.netifs14.pwrStateResidencyTicks::UNDEFINED    719224500                       # Cumulative time (in ticks) in various power states
system.ruby.network.netifs15.pwrStateResidencyTicks::UNDEFINED    719224500                       # Cumulative time (in ticks) in various power states
system.ruby.network.netifs16.pwrStateResidencyTicks::UNDEFINED    719224500                       # Cumulative time (in ticks) in various power states
system.ruby.network.netifs17.pwrStateResidencyTicks::UNDEFINED    719224500                       # Cumulative time (in ticks) in various power states
system.ruby.network.netifs18.pwrStateResidencyTicks::UNDEFINED    719224500                       # Cumulative time (in ticks) in various power states
system.ruby.network.netifs19.pwrStateResidencyTicks::UNDEFINED    719224500                       # Cumulative time (in ticks) in various power states
system.ruby.network.netifs20.pwrStateResidencyTicks::UNDEFINED    719224500                       # Cumulative time (in ticks) in various power states
system.ruby.network.netifs21.pwrStateResidencyTicks::UNDEFINED    719224500                       # Cumulative time (in ticks) in various power states
system.ruby.network.netifs22.pwrStateResidencyTicks::UNDEFINED    719224500                       # Cumulative time (in ticks) in various power states
system.ruby.network.netifs23.pwrStateResidencyTicks::UNDEFINED    719224500                       # Cumulative time (in ticks) in various power states
system.ruby.network.netifs24.pwrStateResidencyTicks::UNDEFINED    719224500                       # Cumulative time (in ticks) in various power states
system.ruby.network.netifs25.pwrStateResidencyTicks::UNDEFINED    719224500                       # Cumulative time (in ticks) in various power states
system.ruby.network.netifs26.pwrStateResidencyTicks::UNDEFINED    719224500                       # Cumulative time (in ticks) in various power states
system.ruby.network.netifs27.pwrStateResidencyTicks::UNDEFINED    719224500                       # Cumulative time (in ticks) in various power states
system.ruby.network.netifs28.pwrStateResidencyTicks::UNDEFINED    719224500                       # Cumulative time (in ticks) in various power states
system.ruby.network.netifs29.pwrStateResidencyTicks::UNDEFINED    719224500                       # Cumulative time (in ticks) in various power states
system.ruby.network.netifs30.pwrStateResidencyTicks::UNDEFINED    719224500                       # Cumulative time (in ticks) in various power states
system.ruby.network.netifs31.pwrStateResidencyTicks::UNDEFINED    719224500                       # Cumulative time (in ticks) in various power states
system.ruby.network.netifs32.pwrStateResidencyTicks::UNDEFINED    719224500                       # Cumulative time (in ticks) in various power states
system.ruby.network.netifs33.pwrStateResidencyTicks::UNDEFINED    719224500                       # Cumulative time (in ticks) in various power states
system.ruby.network.netifs34.pwrStateResidencyTicks::UNDEFINED    719224500                       # Cumulative time (in ticks) in various power states
system.ruby.network.netifs35.pwrStateResidencyTicks::UNDEFINED    719224500                       # Cumulative time (in ticks) in various power states
system.ruby.network.packet_network_latency |      565358                       |      600565                       |      152578                      
system.ruby.network.packet_queueing_latency |       45466                       |       30138                       |        6570                      
system.ruby.network.packets_injected     |       19827     42.76%     42.76% |       20005     43.14%     85.90% |        6540     14.10%    100.00%
system.ruby.network.packets_injected::total        46372                      
system.ruby.network.packets_received     |       19827     42.76%     42.76% |       20005     43.14%     85.90% |        6540     14.10%    100.00%
system.ruby.network.packets_received::total        46372                      
system.ruby.network.pwrStateResidencyTicks::UNDEFINED    719224500                       # Cumulative time (in ticks) in various power states
system.ruby.network.routers00.buffer_reads        94910                      
system.ruby.network.routers00.buffer_writes        94910                      
system.ruby.network.routers00.crossbar_activity        94910                      
system.ruby.network.routers00.pwrStateResidencyTicks::UNDEFINED    719224500                       # Cumulative time (in ticks) in various power states
system.ruby.network.routers00.sw_input_arbiter_activity        94944                      
system.ruby.network.routers00.sw_output_arbiter_activity        94910                      
system.ruby.network.routers01.buffer_reads        38575                      
system.ruby.network.routers01.buffer_writes        38575                      
system.ruby.network.routers01.crossbar_activity        38575                      
system.ruby.network.routers01.pwrStateResidencyTicks::UNDEFINED    719224500                       # Cumulative time (in ticks) in various power states
system.ruby.network.routers01.sw_input_arbiter_activity        38593                      
system.ruby.network.routers01.sw_output_arbiter_activity        38575                      
system.ruby.network.routers02.buffer_reads        24911                      
system.ruby.network.routers02.buffer_writes        24911                      
system.ruby.network.routers02.crossbar_activity        24911                      
system.ruby.network.routers02.pwrStateResidencyTicks::UNDEFINED    719224500                       # Cumulative time (in ticks) in various power states
system.ruby.network.routers02.sw_input_arbiter_activity        24918                      
system.ruby.network.routers02.sw_output_arbiter_activity        24911                      
system.ruby.network.routers03.buffer_reads        15426                      
system.ruby.network.routers03.buffer_writes        15426                      
system.ruby.network.routers03.crossbar_activity        15426                      
system.ruby.network.routers03.pwrStateResidencyTicks::UNDEFINED    719224500                       # Cumulative time (in ticks) in various power states
system.ruby.network.routers03.sw_input_arbiter_activity        15426                      
system.ruby.network.routers03.sw_output_arbiter_activity        15426                      
system.ruby.network.routers04.buffer_reads        56798                      
system.ruby.network.routers04.buffer_writes        56798                      
system.ruby.network.routers04.crossbar_activity        56798                      
system.ruby.network.routers04.pwrStateResidencyTicks::UNDEFINED    719224500                       # Cumulative time (in ticks) in various power states
system.ruby.network.routers04.sw_input_arbiter_activity        56805                      
system.ruby.network.routers04.sw_output_arbiter_activity        56798                      
system.ruby.network.routers05.buffer_reads        18415                      
system.ruby.network.routers05.buffer_writes        18415                      
system.ruby.network.routers05.crossbar_activity        18415                      
system.ruby.network.routers05.pwrStateResidencyTicks::UNDEFINED    719224500                       # Cumulative time (in ticks) in various power states
system.ruby.network.routers05.sw_input_arbiter_activity        18431                      
system.ruby.network.routers05.sw_output_arbiter_activity        18415                      
system.ruby.network.routers06.buffer_reads        15023                      
system.ruby.network.routers06.buffer_writes        15023                      
system.ruby.network.routers06.crossbar_activity        15023                      
system.ruby.network.routers06.pwrStateResidencyTicks::UNDEFINED    719224500                       # Cumulative time (in ticks) in various power states
system.ruby.network.routers06.sw_input_arbiter_activity        15035                      
system.ruby.network.routers06.sw_output_arbiter_activity        15023                      
system.ruby.network.routers07.buffer_reads        11787                      
system.ruby.network.routers07.buffer_writes        11787                      
system.ruby.network.routers07.crossbar_activity        11787                      
system.ruby.network.routers07.pwrStateResidencyTicks::UNDEFINED    719224500                       # Cumulative time (in ticks) in various power states
system.ruby.network.routers07.sw_input_arbiter_activity        11793                      
system.ruby.network.routers07.sw_output_arbiter_activity        11787                      
system.ruby.network.routers08.buffer_reads        38709                      
system.ruby.network.routers08.buffer_writes        38709                      
system.ruby.network.routers08.crossbar_activity        38709                      
system.ruby.network.routers08.pwrStateResidencyTicks::UNDEFINED    719224500                       # Cumulative time (in ticks) in various power states
system.ruby.network.routers08.sw_input_arbiter_activity        38721                      
system.ruby.network.routers08.sw_output_arbiter_activity        38709                      
system.ruby.network.routers09.buffer_reads        16192                      
system.ruby.network.routers09.buffer_writes        16192                      
system.ruby.network.routers09.crossbar_activity        16192                      
system.ruby.network.routers09.pwrStateResidencyTicks::UNDEFINED    719224500                       # Cumulative time (in ticks) in various power states
system.ruby.network.routers09.sw_input_arbiter_activity        16197                      
system.ruby.network.routers09.sw_output_arbiter_activity        16192                      
system.ruby.network.routers10.buffer_reads        15151                      
system.ruby.network.routers10.buffer_writes        15151                      
system.ruby.network.routers10.crossbar_activity        15151                      
system.ruby.network.routers10.pwrStateResidencyTicks::UNDEFINED    719224500                       # Cumulative time (in ticks) in various power states
system.ruby.network.routers10.sw_input_arbiter_activity        15162                      
system.ruby.network.routers10.sw_output_arbiter_activity        15151                      
system.ruby.network.routers11.buffer_reads        11182                      
system.ruby.network.routers11.buffer_writes        11182                      
system.ruby.network.routers11.crossbar_activity        11182                      
system.ruby.network.routers11.pwrStateResidencyTicks::UNDEFINED    719224500                       # Cumulative time (in ticks) in various power states
system.ruby.network.routers11.sw_input_arbiter_activity        11187                      
system.ruby.network.routers11.sw_output_arbiter_activity        11182                      
system.ruby.network.routers12.buffer_reads        28581                      
system.ruby.network.routers12.buffer_writes        28581                      
system.ruby.network.routers12.crossbar_activity        28581                      
system.ruby.network.routers12.pwrStateResidencyTicks::UNDEFINED    719224500                       # Cumulative time (in ticks) in various power states
system.ruby.network.routers12.sw_input_arbiter_activity        28591                      
system.ruby.network.routers12.sw_output_arbiter_activity        28581                      
system.ruby.network.routers13.buffer_reads        18437                      
system.ruby.network.routers13.buffer_writes        18437                      
system.ruby.network.routers13.crossbar_activity        18437                      
system.ruby.network.routers13.pwrStateResidencyTicks::UNDEFINED    719224500                       # Cumulative time (in ticks) in various power states
system.ruby.network.routers13.sw_input_arbiter_activity        18445                      
system.ruby.network.routers13.sw_output_arbiter_activity        18437                      
system.ruby.network.routers14.buffer_reads        14243                      
system.ruby.network.routers14.buffer_writes        14243                      
system.ruby.network.routers14.crossbar_activity        14243                      
system.ruby.network.routers14.pwrStateResidencyTicks::UNDEFINED    719224500                       # Cumulative time (in ticks) in various power states
system.ruby.network.routers14.sw_input_arbiter_activity        14250                      
system.ruby.network.routers14.sw_output_arbiter_activity        14243                      
system.ruby.network.routers15.buffer_reads         9917                      
system.ruby.network.routers15.buffer_writes         9917                      
system.ruby.network.routers15.crossbar_activity         9917                      
system.ruby.network.routers15.pwrStateResidencyTicks::UNDEFINED    719224500                       # Cumulative time (in ticks) in various power states
system.ruby.network.routers15.sw_input_arbiter_activity         9918                      
system.ruby.network.routers15.sw_output_arbiter_activity         9917                      
system.ruby.outstanding_req_hist_seqr::bucket_size            1                      
system.ruby.outstanding_req_hist_seqr::max_bucket            9                      
system.ruby.outstanding_req_hist_seqr::samples       251026                      
system.ruby.outstanding_req_hist_seqr::mean            1                      
system.ruby.outstanding_req_hist_seqr::gmean            1                      
system.ruby.outstanding_req_hist_seqr    |           0      0.00%      0.00% |      251026    100.00%    100.00% |           0      0.00%    100.00% |           0      0.00%    100.00% |           0      0.00%    100.00% |           0      0.00%    100.00% |           0      0.00%    100.00% |           0      0.00%    100.00% |           0      0.00%    100.00% |           0      0.00%    100.00%
system.ruby.outstanding_req_hist_seqr::total       251026                      
system.ruby.pwrStateResidencyTicks::UNDEFINED    719224500                       # Cumulative time (in ticks) in various power states
system.sys_port_proxy.pwrStateResidencyTicks::UNDEFINED    719224500                       # Cumulative time (in ticks) in various power states
system.voltage_domain.voltage                       1                       # Voltage in Volts

---------- End Simulation Statistics   ----------
