
---------- Begin Simulation Statistics ----------
final_tick                                  480180000                       # Number of ticks from beginning of simulation (restored from checkpoints and never reset)
host_inst_rate                                  24412                       # Simulator instruction rate (inst/s)
host_mem_usage                                5160360                       # Number of bytes of host memory used
host_op_rate                                    24468                       # Simulator op (including micro ops) rate (op/s)
host_seconds                                     6.66                       # Real time elapsed on the host
host_tick_rate                               72130774                       # Simulator tick rate (ticks/s)
sim_freq                                 1000000000000                       # Frequency of simulated ticks
sim_insts                                      162505                       # Number of instructions simulated
sim_ops                                        162887                       # Number of ops (including micro ops) simulated
sim_seconds                                  0.000480                       # Number of seconds simulated
sim_ticks                                   480180000                       # Number of ticks simulated
system.clk_domain.clock                          1000                       # Clock period in ticks
system.cpu00.Branches                           22341                       # Number of branches fetched
system.cpu00.committedInsts                    100001                       # Number of instructions committed
system.cpu00.committedOps                      100294                       # Number of ops (including micro ops) committed
system.cpu00.dtb.accesses                           0                       # DTB accesses
system.cpu00.dtb.hits                               0                       # DTB hits
system.cpu00.dtb.misses                             0                       # DTB misses
system.cpu00.dtb.pwrStateResidencyTicks::UNDEFINED    480180000                       # Cumulative time (in ticks) in various power states
system.cpu00.dtb.read_accesses                      0                       # DTB read accesses
system.cpu00.dtb.read_hits                          0                       # DTB read hits
system.cpu00.dtb.read_misses                        0                       # DTB read misses
system.cpu00.dtb.write_accesses                     0                       # DTB write accesses
system.cpu00.dtb.write_hits                         0                       # DTB write hits
system.cpu00.dtb.write_misses                       0                       # DTB write misses
system.cpu00.idle_fraction                   0.002732                       # Percentage of idle cycles
system.cpu00.itb.accesses                           0                       # DTB accesses
system.cpu00.itb.hits                               0                       # DTB hits
system.cpu00.itb.misses                             0                       # DTB misses
system.cpu00.itb.pwrStateResidencyTicks::UNDEFINED    480180000                       # Cumulative time (in ticks) in various power states
system.cpu00.itb.read_accesses                      0                       # DTB read accesses
system.cpu00.itb.read_hits                          0                       # DTB read hits
system.cpu00.itb.read_misses                        0                       # DTB read misses
system.cpu00.itb.write_accesses                     0                       # DTB write accesses
system.cpu00.itb.write_hits                         0                       # DTB write hits
system.cpu00.itb.write_misses                       0                       # DTB write misses
system.cpu00.not_idle_fraction               0.997268                       # Percentage of non-idle cycles
system.cpu00.numCycles                         960360                       # number of cpu cycles simulated
system.cpu00.numPwrStateTransitions                 2                       # Number of power state transitions
system.cpu00.numWorkItemsCompleted                  0                       # number of work items this cpu completed
system.cpu00.numWorkItemsStarted                    0                       # number of work items this cpu started
system.cpu00.num_busy_cycles             957736.000005                       # Number of busy cycles
system.cpu00.num_conditional_control_insts        15920                       # number of instructions that are conditional controls
system.cpu00.num_fp_alu_accesses                   12                       # Number of float alu accesses
system.cpu00.num_fp_insts                          12                       # number of float instructions
system.cpu00.num_fp_register_reads                 12                       # number of times the floating registers were read
system.cpu00.num_fp_register_writes                 0                       # number of times the floating registers were written
system.cpu00.num_func_calls                      6421                       # number of times a function call or return occured
system.cpu00.num_idle_cycles              2623.999995                       # Number of idle cycles
system.cpu00.num_int_alu_accesses               98834                       # Number of integer alu accesses
system.cpu00.num_int_insts                      98834                       # number of integer instructions
system.cpu00.num_int_register_reads            120829                       # number of times the integer registers were read
system.cpu00.num_int_register_writes            64480                       # number of times the integer registers were written
system.cpu00.num_load_insts                     20289                       # Number of load instructions
system.cpu00.num_mem_refs                       36556                       # number of memory refs
system.cpu00.num_store_insts                    16267                       # Number of store instructions
system.cpu00.num_vec_alu_accesses                   0                       # Number of vector alu accesses
system.cpu00.num_vec_insts                          0                       # number of vector instructions
system.cpu00.num_vec_register_reads                 0                       # number of times the vector registers were read
system.cpu00.num_vec_register_writes                0                       # number of times the vector registers were written
system.cpu00.op_class::No_OpClass                 860      0.86%      0.86% # Class of executed instruction
system.cpu00.op_class::IntAlu                   62915     62.68%     63.54% # Class of executed instruction
system.cpu00.op_class::IntMult                     30      0.03%     63.57% # Class of executed instruction
system.cpu00.op_class::IntDiv                       6      0.01%     63.58% # Class of executed instruction
system.cpu00.op_class::FloatAdd                     0      0.00%     63.58% # Class of executed instruction
system.cpu00.op_class::FloatCmp                     0      0.00%     63.58% # Class of executed instruction
system.cpu00.op_class::FloatCvt                     0      0.00%     63.58% # Class of executed instruction
system.cpu00.op_class::FloatMult                    0      0.00%     63.58% # Class of executed instruction
system.cpu00.op_class::FloatMultAcc                 0      0.00%     63.58% # Class of executed instruction
system.cpu00.op_class::FloatDiv                     0      0.00%     63.58% # Class of executed instruction
system.cpu00.op_class::FloatMisc                    0      0.00%     63.58% # Class of executed instruction
system.cpu00.op_class::FloatSqrt                    0      0.00%     63.58% # Class of executed instruction
system.cpu00.op_class::SimdAdd                      0      0.00%     63.58% # Class of executed instruction
system.cpu00.op_class::SimdAddAcc                   0      0.00%     63.58% # Class of executed instruction
system.cpu00.op_class::SimdAlu                      0      0.00%     63.58% # Class of executed instruction
system.cpu00.op_class::SimdCmp                      0      0.00%     63.58% # Class of executed instruction
system.cpu00.op_class::SimdCvt                      0      0.00%     63.58% # Class of executed instruction
system.cpu00.op_class::SimdMisc                     0      0.00%     63.58% # Class of executed instruction
system.cpu00.op_class::SimdMult                     0      0.00%     63.58% # Class of executed instruction
system.cpu00.op_class::SimdMultAcc                  0      0.00%     63.58% # Class of executed instruction
system.cpu00.op_class::SimdShift                    0      0.00%     63.58% # Class of executed instruction
system.cpu00.op_class::SimdShiftAcc                 0      0.00%     63.58% # Class of executed instruction
system.cpu00.op_class::SimdSqrt                     0      0.00%     63.58% # Class of executed instruction
system.cpu00.op_class::SimdFloatAdd                 0      0.00%     63.58% # Class of executed instruction
system.cpu00.op_class::SimdFloatAlu                 0      0.00%     63.58% # Class of executed instruction
system.cpu00.op_class::SimdFloatCmp                 0      0.00%     63.58% # Class of executed instruction
system.cpu00.op_class::SimdFloatCvt                 0      0.00%     63.58% # Class of executed instruction
system.cpu00.op_class::SimdFloatDiv                 0      0.00%     63.58% # Class of executed instruction
system.cpu00.op_class::SimdFloatMisc                0      0.00%     63.58% # Class of executed instruction
system.cpu00.op_class::SimdFloatMult                0      0.00%     63.58% # Class of executed instruction
system.cpu00.op_class::SimdFloatMultAcc             0      0.00%     63.58% # Class of executed instruction
system.cpu00.op_class::SimdFloatSqrt                0      0.00%     63.58% # Class of executed instruction
system.cpu00.op_class::SimdAes                      0      0.00%     63.58% # Class of executed instruction
system.cpu00.op_class::SimdAesMix                   0      0.00%     63.58% # Class of executed instruction
system.cpu00.op_class::SimdSha1Hash                 0      0.00%     63.58% # Class of executed instruction
system.cpu00.op_class::SimdSha1Hash2                0      0.00%     63.58% # Class of executed instruction
system.cpu00.op_class::SimdSha256Hash               0      0.00%     63.58% # Class of executed instruction
system.cpu00.op_class::SimdSha256Hash2              0      0.00%     63.58% # Class of executed instruction
system.cpu00.op_class::SimdShaSigma2                0      0.00%     63.58% # Class of executed instruction
system.cpu00.op_class::SimdShaSigma3                0      0.00%     63.58% # Class of executed instruction
system.cpu00.op_class::MemRead                  20574     20.50%     84.08% # Class of executed instruction
system.cpu00.op_class::MemWrite                 15970     15.91%     99.99% # Class of executed instruction
system.cpu00.op_class::FloatMemRead                 0      0.00%     99.99% # Class of executed instruction
system.cpu00.op_class::FloatMemWrite               12      0.01%    100.00% # Class of executed instruction
system.cpu00.op_class::IprAccess                    0      0.00%    100.00% # Class of executed instruction
system.cpu00.op_class::InstPrefetch                 0      0.00%    100.00% # Class of executed instruction
system.cpu00.op_class::total                   100367                       # Class of executed instruction
system.cpu00.pwrStateClkGateDist::samples            1                       # Distribution of time spent in the clock gated state
system.cpu00.pwrStateClkGateDist::mean        1312000                       # Distribution of time spent in the clock gated state
system.cpu00.pwrStateClkGateDist::1000-5e+10            1    100.00%    100.00% # Distribution of time spent in the clock gated state
system.cpu00.pwrStateClkGateDist::min_value      1312000                       # Distribution of time spent in the clock gated state
system.cpu00.pwrStateClkGateDist::max_value      1312000                       # Distribution of time spent in the clock gated state
system.cpu00.pwrStateClkGateDist::total             1                       # Distribution of time spent in the clock gated state
system.cpu00.pwrStateResidencyTicks::ON     478868000                       # Cumulative time (in ticks) in various power states
system.cpu00.pwrStateResidencyTicks::CLK_GATED      1312000                       # Cumulative time (in ticks) in various power states
system.cpu00.workload.numSyscalls                  72                       # Number of system calls
system.cpu01.Branches                             772                       # Number of branches fetched
system.cpu01.committedInsts                      4104                       # Number of instructions committed
system.cpu01.committedOps                        4110                       # Number of ops (including micro ops) committed
system.cpu01.dtb.accesses                           0                       # DTB accesses
system.cpu01.dtb.hits                               0                       # DTB hits
system.cpu01.dtb.misses                             0                       # DTB misses
system.cpu01.dtb.pwrStateResidencyTicks::UNDEFINED    480180000                       # Cumulative time (in ticks) in various power states
system.cpu01.dtb.read_accesses                      0                       # DTB read accesses
system.cpu01.dtb.read_hits                          0                       # DTB read hits
system.cpu01.dtb.read_misses                        0                       # DTB read misses
system.cpu01.dtb.write_accesses                     0                       # DTB write accesses
system.cpu01.dtb.write_hits                         0                       # DTB write hits
system.cpu01.dtb.write_misses                       0                       # DTB write misses
system.cpu01.idle_fraction                   0.976479                       # Percentage of idle cycles
system.cpu01.itb.accesses                           0                       # DTB accesses
system.cpu01.itb.hits                               0                       # DTB hits
system.cpu01.itb.misses                             0                       # DTB misses
system.cpu01.itb.pwrStateResidencyTicks::UNDEFINED    480180000                       # Cumulative time (in ticks) in various power states
system.cpu01.itb.read_accesses                      0                       # DTB read accesses
system.cpu01.itb.read_hits                          0                       # DTB read hits
system.cpu01.itb.read_misses                        0                       # DTB read misses
system.cpu01.itb.write_accesses                     0                       # DTB write accesses
system.cpu01.itb.write_hits                         0                       # DTB write hits
system.cpu01.itb.write_misses                       0                       # DTB write misses
system.cpu01.not_idle_fraction               0.023521                       # Percentage of non-idle cycles
system.cpu01.numCycles                         960359                       # number of cpu cycles simulated
system.cpu01.numPwrStateTransitions                 2                       # Number of power state transitions
system.cpu01.numWorkItemsCompleted                  0                       # number of work items this cpu completed
system.cpu01.numWorkItemsStarted                    0                       # number of work items this cpu started
system.cpu01.num_busy_cycles             22588.978432                       # Number of busy cycles
system.cpu01.num_conditional_control_insts          404                       # number of instructions that are conditional controls
system.cpu01.num_fp_alu_accesses                   12                       # Number of float alu accesses
system.cpu01.num_fp_insts                          12                       # number of float instructions
system.cpu01.num_fp_register_reads                 12                       # number of times the floating registers were read
system.cpu01.num_fp_register_writes                 0                       # number of times the floating registers were written
system.cpu01.num_func_calls                       368                       # number of times a function call or return occured
system.cpu01.num_idle_cycles             937770.021568                       # Number of idle cycles
system.cpu01.num_int_alu_accesses                4038                       # Number of integer alu accesses
system.cpu01.num_int_insts                       4038                       # number of integer instructions
system.cpu01.num_int_register_reads              4655                       # number of times the integer registers were read
system.cpu01.num_int_register_writes             2985                       # number of times the integer registers were written
system.cpu01.num_load_insts                       998                       # Number of load instructions
system.cpu01.num_mem_refs                        1492                       # number of memory refs
system.cpu01.num_store_insts                      494                       # Number of store instructions
system.cpu01.num_vec_alu_accesses                   0                       # Number of vector alu accesses
system.cpu01.num_vec_insts                          0                       # number of vector instructions
system.cpu01.num_vec_register_reads                 0                       # number of times the vector registers were read
system.cpu01.num_vec_register_writes                0                       # number of times the vector registers were written
system.cpu01.op_class::No_OpClass                  10      0.24%      0.24% # Class of executed instruction
system.cpu01.op_class::IntAlu                    2607     63.40%     63.64% # Class of executed instruction
system.cpu01.op_class::IntMult                      1      0.02%     63.67% # Class of executed instruction
system.cpu01.op_class::IntDiv                       2      0.05%     63.72% # Class of executed instruction
system.cpu01.op_class::FloatAdd                     0      0.00%     63.72% # Class of executed instruction
system.cpu01.op_class::FloatCmp                     0      0.00%     63.72% # Class of executed instruction
system.cpu01.op_class::FloatCvt                     0      0.00%     63.72% # Class of executed instruction
system.cpu01.op_class::FloatMult                    0      0.00%     63.72% # Class of executed instruction
system.cpu01.op_class::FloatMultAcc                 0      0.00%     63.72% # Class of executed instruction
system.cpu01.op_class::FloatDiv                     0      0.00%     63.72% # Class of executed instruction
system.cpu01.op_class::FloatMisc                    0      0.00%     63.72% # Class of executed instruction
system.cpu01.op_class::FloatSqrt                    0      0.00%     63.72% # Class of executed instruction
system.cpu01.op_class::SimdAdd                      0      0.00%     63.72% # Class of executed instruction
system.cpu01.op_class::SimdAddAcc                   0      0.00%     63.72% # Class of executed instruction
system.cpu01.op_class::SimdAlu                      0      0.00%     63.72% # Class of executed instruction
system.cpu01.op_class::SimdCmp                      0      0.00%     63.72% # Class of executed instruction
system.cpu01.op_class::SimdCvt                      0      0.00%     63.72% # Class of executed instruction
system.cpu01.op_class::SimdMisc                     0      0.00%     63.72% # Class of executed instruction
system.cpu01.op_class::SimdMult                     0      0.00%     63.72% # Class of executed instruction
system.cpu01.op_class::SimdMultAcc                  0      0.00%     63.72% # Class of executed instruction
system.cpu01.op_class::SimdShift                    0      0.00%     63.72% # Class of executed instruction
system.cpu01.op_class::SimdShiftAcc                 0      0.00%     63.72% # Class of executed instruction
system.cpu01.op_class::SimdSqrt                     0      0.00%     63.72% # Class of executed instruction
system.cpu01.op_class::SimdFloatAdd                 0      0.00%     63.72% # Class of executed instruction
system.cpu01.op_class::SimdFloatAlu                 0      0.00%     63.72% # Class of executed instruction
system.cpu01.op_class::SimdFloatCmp                 0      0.00%     63.72% # Class of executed instruction
system.cpu01.op_class::SimdFloatCvt                 0      0.00%     63.72% # Class of executed instruction
system.cpu01.op_class::SimdFloatDiv                 0      0.00%     63.72% # Class of executed instruction
system.cpu01.op_class::SimdFloatMisc                0      0.00%     63.72% # Class of executed instruction
system.cpu01.op_class::SimdFloatMult                0      0.00%     63.72% # Class of executed instruction
system.cpu01.op_class::SimdFloatMultAcc             0      0.00%     63.72% # Class of executed instruction
system.cpu01.op_class::SimdFloatSqrt                0      0.00%     63.72% # Class of executed instruction
system.cpu01.op_class::SimdAes                      0      0.00%     63.72% # Class of executed instruction
system.cpu01.op_class::SimdAesMix                   0      0.00%     63.72% # Class of executed instruction
system.cpu01.op_class::SimdSha1Hash                 0      0.00%     63.72% # Class of executed instruction
system.cpu01.op_class::SimdSha1Hash2                0      0.00%     63.72% # Class of executed instruction
system.cpu01.op_class::SimdSha256Hash               0      0.00%     63.72% # Class of executed instruction
system.cpu01.op_class::SimdSha256Hash2              0      0.00%     63.72% # Class of executed instruction
system.cpu01.op_class::SimdShaSigma2                0      0.00%     63.72% # Class of executed instruction
system.cpu01.op_class::SimdShaSigma3                0      0.00%     63.72% # Class of executed instruction
system.cpu01.op_class::MemRead                   1002     24.37%     88.08% # Class of executed instruction
system.cpu01.op_class::MemWrite                   478     11.62%     99.71% # Class of executed instruction
system.cpu01.op_class::FloatMemRead                 0      0.00%     99.71% # Class of executed instruction
system.cpu01.op_class::FloatMemWrite               12      0.29%    100.00% # Class of executed instruction
system.cpu01.op_class::IprAccess                    0      0.00%    100.00% # Class of executed instruction
system.cpu01.op_class::InstPrefetch                 0      0.00%    100.00% # Class of executed instruction
system.cpu01.op_class::total                     4112                       # Class of executed instruction
system.cpu01.pwrStateClkGateDist::samples            1                       # Distribution of time spent in the clock gated state
system.cpu01.pwrStateClkGateDist::mean       89268000                       # Distribution of time spent in the clock gated state
system.cpu01.pwrStateClkGateDist::1000-5e+10            1    100.00%    100.00% # Distribution of time spent in the clock gated state
system.cpu01.pwrStateClkGateDist::min_value     89268000                       # Distribution of time spent in the clock gated state
system.cpu01.pwrStateClkGateDist::max_value     89268000                       # Distribution of time spent in the clock gated state
system.cpu01.pwrStateClkGateDist::total             1                       # Distribution of time spent in the clock gated state
system.cpu01.pwrStateResidencyTicks::ON     390912000                       # Cumulative time (in ticks) in various power states
system.cpu01.pwrStateResidencyTicks::CLK_GATED     89268000                       # Cumulative time (in ticks) in various power states
system.cpu02.Branches                             780                       # Number of branches fetched
system.cpu02.committedInsts                      4153                       # Number of instructions committed
system.cpu02.committedOps                        4159                       # Number of ops (including micro ops) committed
system.cpu02.dtb.accesses                           0                       # DTB accesses
system.cpu02.dtb.hits                               0                       # DTB hits
system.cpu02.dtb.misses                             0                       # DTB misses
system.cpu02.dtb.pwrStateResidencyTicks::UNDEFINED    480180000                       # Cumulative time (in ticks) in various power states
system.cpu02.dtb.read_accesses                      0                       # DTB read accesses
system.cpu02.dtb.read_hits                          0                       # DTB read hits
system.cpu02.dtb.read_misses                        0                       # DTB read misses
system.cpu02.dtb.write_accesses                     0                       # DTB write accesses
system.cpu02.dtb.write_hits                         0                       # DTB write hits
system.cpu02.dtb.write_misses                       0                       # DTB write misses
system.cpu02.idle_fraction                   0.979304                       # Percentage of idle cycles
system.cpu02.itb.accesses                           0                       # DTB accesses
system.cpu02.itb.hits                               0                       # DTB hits
system.cpu02.itb.misses                             0                       # DTB misses
system.cpu02.itb.pwrStateResidencyTicks::UNDEFINED    480180000                       # Cumulative time (in ticks) in various power states
system.cpu02.itb.read_accesses                      0                       # DTB read accesses
system.cpu02.itb.read_hits                          0                       # DTB read hits
system.cpu02.itb.read_misses                        0                       # DTB read misses
system.cpu02.itb.write_accesses                     0                       # DTB write accesses
system.cpu02.itb.write_hits                         0                       # DTB write hits
system.cpu02.itb.write_misses                       0                       # DTB write misses
system.cpu02.not_idle_fraction               0.020696                       # Percentage of non-idle cycles
system.cpu02.numCycles                         960360                       # number of cpu cycles simulated
system.cpu02.numPwrStateTransitions                 2                       # Number of power state transitions
system.cpu02.numWorkItemsCompleted                  0                       # number of work items this cpu completed
system.cpu02.numWorkItemsStarted                    0                       # number of work items this cpu started
system.cpu02.num_busy_cycles             19876.001959                       # Number of busy cycles
system.cpu02.num_conditional_control_insts          409                       # number of instructions that are conditional controls
system.cpu02.num_fp_alu_accesses                   12                       # Number of float alu accesses
system.cpu02.num_fp_insts                          12                       # number of float instructions
system.cpu02.num_fp_register_reads                 12                       # number of times the floating registers were read
system.cpu02.num_fp_register_writes                 0                       # number of times the floating registers were written
system.cpu02.num_func_calls                       371                       # number of times a function call or return occured
system.cpu02.num_idle_cycles             940483.998041                       # Number of idle cycles
system.cpu02.num_int_alu_accesses                4087                       # Number of integer alu accesses
system.cpu02.num_int_insts                       4087                       # number of integer instructions
system.cpu02.num_int_register_reads              4713                       # number of times the integer registers were read
system.cpu02.num_int_register_writes             3022                       # number of times the integer registers were written
system.cpu02.num_load_insts                      1011                       # Number of load instructions
system.cpu02.num_mem_refs                        1511                       # number of memory refs
system.cpu02.num_store_insts                      500                       # Number of store instructions
system.cpu02.num_vec_alu_accesses                   0                       # Number of vector alu accesses
system.cpu02.num_vec_insts                          0                       # number of vector instructions
system.cpu02.num_vec_register_reads                 0                       # number of times the vector registers were read
system.cpu02.num_vec_register_writes                0                       # number of times the vector registers were written
system.cpu02.op_class::No_OpClass                  10      0.24%      0.24% # Class of executed instruction
system.cpu02.op_class::IntAlu                    2637     63.37%     63.61% # Class of executed instruction
system.cpu02.op_class::IntMult                      1      0.02%     63.64% # Class of executed instruction
system.cpu02.op_class::IntDiv                       2      0.05%     63.69% # Class of executed instruction
system.cpu02.op_class::FloatAdd                     0      0.00%     63.69% # Class of executed instruction
system.cpu02.op_class::FloatCmp                     0      0.00%     63.69% # Class of executed instruction
system.cpu02.op_class::FloatCvt                     0      0.00%     63.69% # Class of executed instruction
system.cpu02.op_class::FloatMult                    0      0.00%     63.69% # Class of executed instruction
system.cpu02.op_class::FloatMultAcc                 0      0.00%     63.69% # Class of executed instruction
system.cpu02.op_class::FloatDiv                     0      0.00%     63.69% # Class of executed instruction
system.cpu02.op_class::FloatMisc                    0      0.00%     63.69% # Class of executed instruction
system.cpu02.op_class::FloatSqrt                    0      0.00%     63.69% # Class of executed instruction
system.cpu02.op_class::SimdAdd                      0      0.00%     63.69% # Class of executed instruction
system.cpu02.op_class::SimdAddAcc                   0      0.00%     63.69% # Class of executed instruction
system.cpu02.op_class::SimdAlu                      0      0.00%     63.69% # Class of executed instruction
system.cpu02.op_class::SimdCmp                      0      0.00%     63.69% # Class of executed instruction
system.cpu02.op_class::SimdCvt                      0      0.00%     63.69% # Class of executed instruction
system.cpu02.op_class::SimdMisc                     0      0.00%     63.69% # Class of executed instruction
system.cpu02.op_class::SimdMult                     0      0.00%     63.69% # Class of executed instruction
system.cpu02.op_class::SimdMultAcc                  0      0.00%     63.69% # Class of executed instruction
system.cpu02.op_class::SimdShift                    0      0.00%     63.69% # Class of executed instruction
system.cpu02.op_class::SimdShiftAcc                 0      0.00%     63.69% # Class of executed instruction
system.cpu02.op_class::SimdSqrt                     0      0.00%     63.69% # Class of executed instruction
system.cpu02.op_class::SimdFloatAdd                 0      0.00%     63.69% # Class of executed instruction
system.cpu02.op_class::SimdFloatAlu                 0      0.00%     63.69% # Class of executed instruction
system.cpu02.op_class::SimdFloatCmp                 0      0.00%     63.69% # Class of executed instruction
system.cpu02.op_class::SimdFloatCvt                 0      0.00%     63.69% # Class of executed instruction
system.cpu02.op_class::SimdFloatDiv                 0      0.00%     63.69% # Class of executed instruction
system.cpu02.op_class::SimdFloatMisc                0      0.00%     63.69% # Class of executed instruction
system.cpu02.op_class::SimdFloatMult                0      0.00%     63.69% # Class of executed instruction
system.cpu02.op_class::SimdFloatMultAcc             0      0.00%     63.69% # Class of executed instruction
system.cpu02.op_class::SimdFloatSqrt                0      0.00%     63.69% # Class of executed instruction
system.cpu02.op_class::SimdAes                      0      0.00%     63.69% # Class of executed instruction
system.cpu02.op_class::SimdAesMix                   0      0.00%     63.69% # Class of executed instruction
system.cpu02.op_class::SimdSha1Hash                 0      0.00%     63.69% # Class of executed instruction
system.cpu02.op_class::SimdSha1Hash2                0      0.00%     63.69% # Class of executed instruction
system.cpu02.op_class::SimdSha256Hash               0      0.00%     63.69% # Class of executed instruction
system.cpu02.op_class::SimdSha256Hash2              0      0.00%     63.69% # Class of executed instruction
system.cpu02.op_class::SimdShaSigma2                0      0.00%     63.69% # Class of executed instruction
system.cpu02.op_class::SimdShaSigma3                0      0.00%     63.69% # Class of executed instruction
system.cpu02.op_class::MemRead                   1015     24.39%     88.08% # Class of executed instruction
system.cpu02.op_class::MemWrite                   484     11.63%     99.71% # Class of executed instruction
system.cpu02.op_class::FloatMemRead                 0      0.00%     99.71% # Class of executed instruction
system.cpu02.op_class::FloatMemWrite               12      0.29%    100.00% # Class of executed instruction
system.cpu02.op_class::IprAccess                    0      0.00%    100.00% # Class of executed instruction
system.cpu02.op_class::InstPrefetch                 0      0.00%    100.00% # Class of executed instruction
system.cpu02.op_class::total                     4161                       # Class of executed instruction
system.cpu02.pwrStateClkGateDist::samples            1                       # Distribution of time spent in the clock gated state
system.cpu02.pwrStateClkGateDist::mean       84578500                       # Distribution of time spent in the clock gated state
system.cpu02.pwrStateClkGateDist::1000-5e+10            1    100.00%    100.00% # Distribution of time spent in the clock gated state
system.cpu02.pwrStateClkGateDist::min_value     84578500                       # Distribution of time spent in the clock gated state
system.cpu02.pwrStateClkGateDist::max_value     84578500                       # Distribution of time spent in the clock gated state
system.cpu02.pwrStateClkGateDist::total             1                       # Distribution of time spent in the clock gated state
system.cpu02.pwrStateResidencyTicks::ON     395601500                       # Cumulative time (in ticks) in various power states
system.cpu02.pwrStateResidencyTicks::CLK_GATED     84578500                       # Cumulative time (in ticks) in various power states
system.cpu03.Branches                             790                       # Number of branches fetched
system.cpu03.committedInsts                      4171                       # Number of instructions committed
system.cpu03.committedOps                        4177                       # Number of ops (including micro ops) committed
system.cpu03.dtb.accesses                           0                       # DTB accesses
system.cpu03.dtb.hits                               0                       # DTB hits
system.cpu03.dtb.misses                             0                       # DTB misses
system.cpu03.dtb.pwrStateResidencyTicks::UNDEFINED    480180000                       # Cumulative time (in ticks) in various power states
system.cpu03.dtb.read_accesses                      0                       # DTB read accesses
system.cpu03.dtb.read_hits                          0                       # DTB read hits
system.cpu03.dtb.read_misses                        0                       # DTB read misses
system.cpu03.dtb.write_accesses                     0                       # DTB write accesses
system.cpu03.dtb.write_hits                         0                       # DTB write hits
system.cpu03.dtb.write_misses                       0                       # DTB write misses
system.cpu03.idle_fraction                   0.979671                       # Percentage of idle cycles
system.cpu03.itb.accesses                           0                       # DTB accesses
system.cpu03.itb.hits                               0                       # DTB hits
system.cpu03.itb.misses                             0                       # DTB misses
system.cpu03.itb.pwrStateResidencyTicks::UNDEFINED    480180000                       # Cumulative time (in ticks) in various power states
system.cpu03.itb.read_accesses                      0                       # DTB read accesses
system.cpu03.itb.read_hits                          0                       # DTB read hits
system.cpu03.itb.read_misses                        0                       # DTB read misses
system.cpu03.itb.write_accesses                     0                       # DTB write accesses
system.cpu03.itb.write_hits                         0                       # DTB write hits
system.cpu03.itb.write_misses                       0                       # DTB write misses
system.cpu03.not_idle_fraction               0.020329                       # Percentage of non-idle cycles
system.cpu03.numCycles                         960359                       # number of cpu cycles simulated
system.cpu03.numPwrStateTransitions                 2                       # Number of power state transitions
system.cpu03.numWorkItemsCompleted                  0                       # number of work items this cpu completed
system.cpu03.numWorkItemsStarted                    0                       # number of work items this cpu started
system.cpu03.num_busy_cycles             19522.981631                       # Number of busy cycles
system.cpu03.num_conditional_control_insts          402                       # number of instructions that are conditional controls
system.cpu03.num_fp_alu_accesses                   12                       # Number of float alu accesses
system.cpu03.num_fp_insts                          12                       # number of float instructions
system.cpu03.num_fp_register_reads                 12                       # number of times the floating registers were read
system.cpu03.num_fp_register_writes                 0                       # number of times the floating registers were written
system.cpu03.num_func_calls                       388                       # number of times a function call or return occured
system.cpu03.num_idle_cycles             940836.018369                       # Number of idle cycles
system.cpu03.num_int_alu_accesses                4091                       # Number of integer alu accesses
system.cpu03.num_int_insts                       4091                       # number of integer instructions
system.cpu03.num_int_register_reads              4720                       # number of times the integer registers were read
system.cpu03.num_int_register_writes             3029                       # number of times the integer registers were written
system.cpu03.num_load_insts                      1017                       # Number of load instructions
system.cpu03.num_mem_refs                        1516                       # number of memory refs
system.cpu03.num_store_insts                      499                       # Number of store instructions
system.cpu03.num_vec_alu_accesses                   0                       # Number of vector alu accesses
system.cpu03.num_vec_insts                          0                       # number of vector instructions
system.cpu03.num_vec_register_reads                 0                       # number of times the vector registers were read
system.cpu03.num_vec_register_writes                0                       # number of times the vector registers were written
system.cpu03.op_class::No_OpClass                  10      0.24%      0.24% # Class of executed instruction
system.cpu03.op_class::IntAlu                    2650     63.41%     63.65% # Class of executed instruction
system.cpu03.op_class::IntMult                      1      0.02%     63.68% # Class of executed instruction
system.cpu03.op_class::IntDiv                       2      0.05%     63.72% # Class of executed instruction
system.cpu03.op_class::FloatAdd                     0      0.00%     63.72% # Class of executed instruction
system.cpu03.op_class::FloatCmp                     0      0.00%     63.72% # Class of executed instruction
system.cpu03.op_class::FloatCvt                     0      0.00%     63.72% # Class of executed instruction
system.cpu03.op_class::FloatMult                    0      0.00%     63.72% # Class of executed instruction
system.cpu03.op_class::FloatMultAcc                 0      0.00%     63.72% # Class of executed instruction
system.cpu03.op_class::FloatDiv                     0      0.00%     63.72% # Class of executed instruction
system.cpu03.op_class::FloatMisc                    0      0.00%     63.72% # Class of executed instruction
system.cpu03.op_class::FloatSqrt                    0      0.00%     63.72% # Class of executed instruction
system.cpu03.op_class::SimdAdd                      0      0.00%     63.72% # Class of executed instruction
system.cpu03.op_class::SimdAddAcc                   0      0.00%     63.72% # Class of executed instruction
system.cpu03.op_class::SimdAlu                      0      0.00%     63.72% # Class of executed instruction
system.cpu03.op_class::SimdCmp                      0      0.00%     63.72% # Class of executed instruction
system.cpu03.op_class::SimdCvt                      0      0.00%     63.72% # Class of executed instruction
system.cpu03.op_class::SimdMisc                     0      0.00%     63.72% # Class of executed instruction
system.cpu03.op_class::SimdMult                     0      0.00%     63.72% # Class of executed instruction
system.cpu03.op_class::SimdMultAcc                  0      0.00%     63.72% # Class of executed instruction
system.cpu03.op_class::SimdShift                    0      0.00%     63.72% # Class of executed instruction
system.cpu03.op_class::SimdShiftAcc                 0      0.00%     63.72% # Class of executed instruction
system.cpu03.op_class::SimdSqrt                     0      0.00%     63.72% # Class of executed instruction
system.cpu03.op_class::SimdFloatAdd                 0      0.00%     63.72% # Class of executed instruction
system.cpu03.op_class::SimdFloatAlu                 0      0.00%     63.72% # Class of executed instruction
system.cpu03.op_class::SimdFloatCmp                 0      0.00%     63.72% # Class of executed instruction
system.cpu03.op_class::SimdFloatCvt                 0      0.00%     63.72% # Class of executed instruction
system.cpu03.op_class::SimdFloatDiv                 0      0.00%     63.72% # Class of executed instruction
system.cpu03.op_class::SimdFloatMisc                0      0.00%     63.72% # Class of executed instruction
system.cpu03.op_class::SimdFloatMult                0      0.00%     63.72% # Class of executed instruction
system.cpu03.op_class::SimdFloatMultAcc             0      0.00%     63.72% # Class of executed instruction
system.cpu03.op_class::SimdFloatSqrt                0      0.00%     63.72% # Class of executed instruction
system.cpu03.op_class::SimdAes                      0      0.00%     63.72% # Class of executed instruction
system.cpu03.op_class::SimdAesMix                   0      0.00%     63.72% # Class of executed instruction
system.cpu03.op_class::SimdSha1Hash                 0      0.00%     63.72% # Class of executed instruction
system.cpu03.op_class::SimdSha1Hash2                0      0.00%     63.72% # Class of executed instruction
system.cpu03.op_class::SimdSha256Hash               0      0.00%     63.72% # Class of executed instruction
system.cpu03.op_class::SimdSha256Hash2              0      0.00%     63.72% # Class of executed instruction
system.cpu03.op_class::SimdShaSigma2                0      0.00%     63.72% # Class of executed instruction
system.cpu03.op_class::SimdShaSigma3                0      0.00%     63.72% # Class of executed instruction
system.cpu03.op_class::MemRead                   1021     24.43%     88.16% # Class of executed instruction
system.cpu03.op_class::MemWrite                   483     11.56%     99.71% # Class of executed instruction
system.cpu03.op_class::FloatMemRead                 0      0.00%     99.71% # Class of executed instruction
system.cpu03.op_class::FloatMemWrite               12      0.29%    100.00% # Class of executed instruction
system.cpu03.op_class::IprAccess                    0      0.00%    100.00% # Class of executed instruction
system.cpu03.op_class::InstPrefetch                 0      0.00%    100.00% # Class of executed instruction
system.cpu03.op_class::total                     4179                       # Class of executed instruction
system.cpu03.pwrStateClkGateDist::samples            1                       # Distribution of time spent in the clock gated state
system.cpu03.pwrStateClkGateDist::mean       78606000                       # Distribution of time spent in the clock gated state
system.cpu03.pwrStateClkGateDist::1000-5e+10            1    100.00%    100.00% # Distribution of time spent in the clock gated state
system.cpu03.pwrStateClkGateDist::min_value     78606000                       # Distribution of time spent in the clock gated state
system.cpu03.pwrStateClkGateDist::max_value     78606000                       # Distribution of time spent in the clock gated state
system.cpu03.pwrStateClkGateDist::total             1                       # Distribution of time spent in the clock gated state
system.cpu03.pwrStateResidencyTicks::ON     401574000                       # Cumulative time (in ticks) in various power states
system.cpu03.pwrStateResidencyTicks::CLK_GATED     78606000                       # Cumulative time (in ticks) in various power states
system.cpu04.Branches                             806                       # Number of branches fetched
system.cpu04.committedInsts                      4259                       # Number of instructions committed
system.cpu04.committedOps                        4265                       # Number of ops (including micro ops) committed
system.cpu04.dtb.accesses                           0                       # DTB accesses
system.cpu04.dtb.hits                               0                       # DTB hits
system.cpu04.dtb.misses                             0                       # DTB misses
system.cpu04.dtb.pwrStateResidencyTicks::UNDEFINED    480180000                       # Cumulative time (in ticks) in various power states
system.cpu04.dtb.read_accesses                      0                       # DTB read accesses
system.cpu04.dtb.read_hits                          0                       # DTB read hits
system.cpu04.dtb.read_misses                        0                       # DTB read misses
system.cpu04.dtb.write_accesses                     0                       # DTB write accesses
system.cpu04.dtb.write_hits                         0                       # DTB write hits
system.cpu04.dtb.write_misses                       0                       # DTB write misses
system.cpu04.idle_fraction                   0.979562                       # Percentage of idle cycles
system.cpu04.itb.accesses                           0                       # DTB accesses
system.cpu04.itb.hits                               0                       # DTB hits
system.cpu04.itb.misses                             0                       # DTB misses
system.cpu04.itb.pwrStateResidencyTicks::UNDEFINED    480180000                       # Cumulative time (in ticks) in various power states
system.cpu04.itb.read_accesses                      0                       # DTB read accesses
system.cpu04.itb.read_hits                          0                       # DTB read hits
system.cpu04.itb.read_misses                        0                       # DTB read misses
system.cpu04.itb.write_accesses                     0                       # DTB write accesses
system.cpu04.itb.write_hits                         0                       # DTB write hits
system.cpu04.itb.write_misses                       0                       # DTB write misses
system.cpu04.not_idle_fraction               0.020438                       # Percentage of non-idle cycles
system.cpu04.numCycles                         960359                       # number of cpu cycles simulated
system.cpu04.numPwrStateTransitions                 2                       # Number of power state transitions
system.cpu04.numWorkItemsCompleted                  0                       # number of work items this cpu completed
system.cpu04.numWorkItemsStarted                    0                       # number of work items this cpu started
system.cpu04.num_busy_cycles             19627.981521                       # Number of busy cycles
system.cpu04.num_conditional_control_insts          408                       # number of instructions that are conditional controls
system.cpu04.num_fp_alu_accesses                   12                       # Number of float alu accesses
system.cpu04.num_fp_insts                          12                       # number of float instructions
system.cpu04.num_fp_register_reads                 12                       # number of times the floating registers were read
system.cpu04.num_fp_register_writes                 0                       # number of times the floating registers were written
system.cpu04.num_func_calls                       398                       # number of times a function call or return occured
system.cpu04.num_idle_cycles             940731.018479                       # Number of idle cycles
system.cpu04.num_int_alu_accesses                4175                       # Number of integer alu accesses
system.cpu04.num_int_insts                       4175                       # number of integer instructions
system.cpu04.num_int_register_reads              4818                       # number of times the integer registers were read
system.cpu04.num_int_register_writes             3093                       # number of times the integer registers were written
system.cpu04.num_load_insts                      1038                       # Number of load instructions
system.cpu04.num_mem_refs                        1547                       # number of memory refs
system.cpu04.num_store_insts                      509                       # Number of store instructions
system.cpu04.num_vec_alu_accesses                   0                       # Number of vector alu accesses
system.cpu04.num_vec_insts                          0                       # number of vector instructions
system.cpu04.num_vec_register_reads                 0                       # number of times the vector registers were read
system.cpu04.num_vec_register_writes                0                       # number of times the vector registers were written
system.cpu04.op_class::No_OpClass                  10      0.23%      0.23% # Class of executed instruction
system.cpu04.op_class::IntAlu                    2707     63.44%     63.67% # Class of executed instruction
system.cpu04.op_class::IntMult                      1      0.02%     63.70% # Class of executed instruction
system.cpu04.op_class::IntDiv                       2      0.05%     63.75% # Class of executed instruction
system.cpu04.op_class::FloatAdd                     0      0.00%     63.75% # Class of executed instruction
system.cpu04.op_class::FloatCmp                     0      0.00%     63.75% # Class of executed instruction
system.cpu04.op_class::FloatCvt                     0      0.00%     63.75% # Class of executed instruction
system.cpu04.op_class::FloatMult                    0      0.00%     63.75% # Class of executed instruction
system.cpu04.op_class::FloatMultAcc                 0      0.00%     63.75% # Class of executed instruction
system.cpu04.op_class::FloatDiv                     0      0.00%     63.75% # Class of executed instruction
system.cpu04.op_class::FloatMisc                    0      0.00%     63.75% # Class of executed instruction
system.cpu04.op_class::FloatSqrt                    0      0.00%     63.75% # Class of executed instruction
system.cpu04.op_class::SimdAdd                      0      0.00%     63.75% # Class of executed instruction
system.cpu04.op_class::SimdAddAcc                   0      0.00%     63.75% # Class of executed instruction
system.cpu04.op_class::SimdAlu                      0      0.00%     63.75% # Class of executed instruction
system.cpu04.op_class::SimdCmp                      0      0.00%     63.75% # Class of executed instruction
system.cpu04.op_class::SimdCvt                      0      0.00%     63.75% # Class of executed instruction
system.cpu04.op_class::SimdMisc                     0      0.00%     63.75% # Class of executed instruction
system.cpu04.op_class::SimdMult                     0      0.00%     63.75% # Class of executed instruction
system.cpu04.op_class::SimdMultAcc                  0      0.00%     63.75% # Class of executed instruction
system.cpu04.op_class::SimdShift                    0      0.00%     63.75% # Class of executed instruction
system.cpu04.op_class::SimdShiftAcc                 0      0.00%     63.75% # Class of executed instruction
system.cpu04.op_class::SimdSqrt                     0      0.00%     63.75% # Class of executed instruction
system.cpu04.op_class::SimdFloatAdd                 0      0.00%     63.75% # Class of executed instruction
system.cpu04.op_class::SimdFloatAlu                 0      0.00%     63.75% # Class of executed instruction
system.cpu04.op_class::SimdFloatCmp                 0      0.00%     63.75% # Class of executed instruction
system.cpu04.op_class::SimdFloatCvt                 0      0.00%     63.75% # Class of executed instruction
system.cpu04.op_class::SimdFloatDiv                 0      0.00%     63.75% # Class of executed instruction
system.cpu04.op_class::SimdFloatMisc                0      0.00%     63.75% # Class of executed instruction
system.cpu04.op_class::SimdFloatMult                0      0.00%     63.75% # Class of executed instruction
system.cpu04.op_class::SimdFloatMultAcc             0      0.00%     63.75% # Class of executed instruction
system.cpu04.op_class::SimdFloatSqrt                0      0.00%     63.75% # Class of executed instruction
system.cpu04.op_class::SimdAes                      0      0.00%     63.75% # Class of executed instruction
system.cpu04.op_class::SimdAesMix                   0      0.00%     63.75% # Class of executed instruction
system.cpu04.op_class::SimdSha1Hash                 0      0.00%     63.75% # Class of executed instruction
system.cpu04.op_class::SimdSha1Hash2                0      0.00%     63.75% # Class of executed instruction
system.cpu04.op_class::SimdSha256Hash               0      0.00%     63.75% # Class of executed instruction
system.cpu04.op_class::SimdSha256Hash2              0      0.00%     63.75% # Class of executed instruction
system.cpu04.op_class::SimdShaSigma2                0      0.00%     63.75% # Class of executed instruction
system.cpu04.op_class::SimdShaSigma3                0      0.00%     63.75% # Class of executed instruction
system.cpu04.op_class::MemRead                   1042     24.42%     88.16% # Class of executed instruction
system.cpu04.op_class::MemWrite                   493     11.55%     99.72% # Class of executed instruction
system.cpu04.op_class::FloatMemRead                 0      0.00%     99.72% # Class of executed instruction
system.cpu04.op_class::FloatMemWrite               12      0.28%    100.00% # Class of executed instruction
system.cpu04.op_class::IprAccess                    0      0.00%    100.00% # Class of executed instruction
system.cpu04.op_class::InstPrefetch                 0      0.00%    100.00% # Class of executed instruction
system.cpu04.op_class::total                     4267                       # Class of executed instruction
system.cpu04.pwrStateClkGateDist::samples            1                       # Distribution of time spent in the clock gated state
system.cpu04.pwrStateClkGateDist::mean       72484000                       # Distribution of time spent in the clock gated state
system.cpu04.pwrStateClkGateDist::1000-5e+10            1    100.00%    100.00% # Distribution of time spent in the clock gated state
system.cpu04.pwrStateClkGateDist::min_value     72484000                       # Distribution of time spent in the clock gated state
system.cpu04.pwrStateClkGateDist::max_value     72484000                       # Distribution of time spent in the clock gated state
system.cpu04.pwrStateClkGateDist::total             1                       # Distribution of time spent in the clock gated state
system.cpu04.pwrStateResidencyTicks::ON     407696000                       # Cumulative time (in ticks) in various power states
system.cpu04.pwrStateResidencyTicks::CLK_GATED     72484000                       # Cumulative time (in ticks) in various power states
system.cpu05.Branches                             812                       # Number of branches fetched
system.cpu05.committedInsts                      4292                       # Number of instructions committed
system.cpu05.committedOps                        4298                       # Number of ops (including micro ops) committed
system.cpu05.dtb.accesses                           0                       # DTB accesses
system.cpu05.dtb.hits                               0                       # DTB hits
system.cpu05.dtb.misses                             0                       # DTB misses
system.cpu05.dtb.pwrStateResidencyTicks::UNDEFINED    480180000                       # Cumulative time (in ticks) in various power states
system.cpu05.dtb.read_accesses                      0                       # DTB read accesses
system.cpu05.dtb.read_hits                          0                       # DTB read hits
system.cpu05.dtb.read_misses                        0                       # DTB read misses
system.cpu05.dtb.write_accesses                     0                       # DTB write accesses
system.cpu05.dtb.write_hits                         0                       # DTB write hits
system.cpu05.dtb.write_misses                       0                       # DTB write misses
system.cpu05.idle_fraction                   0.979938                       # Percentage of idle cycles
system.cpu05.itb.accesses                           0                       # DTB accesses
system.cpu05.itb.hits                               0                       # DTB hits
system.cpu05.itb.misses                             0                       # DTB misses
system.cpu05.itb.pwrStateResidencyTicks::UNDEFINED    480180000                       # Cumulative time (in ticks) in various power states
system.cpu05.itb.read_accesses                      0                       # DTB read accesses
system.cpu05.itb.read_hits                          0                       # DTB read hits
system.cpu05.itb.read_misses                        0                       # DTB read misses
system.cpu05.itb.write_accesses                     0                       # DTB write accesses
system.cpu05.itb.write_hits                         0                       # DTB write hits
system.cpu05.itb.write_misses                       0                       # DTB write misses
system.cpu05.not_idle_fraction               0.020062                       # Percentage of non-idle cycles
system.cpu05.numCycles                         960360                       # number of cpu cycles simulated
system.cpu05.numPwrStateTransitions                 2                       # Number of power state transitions
system.cpu05.numWorkItemsCompleted                  0                       # number of work items this cpu completed
system.cpu05.numWorkItemsStarted                    0                       # number of work items this cpu started
system.cpu05.num_busy_cycles             19267.001960                       # Number of busy cycles
system.cpu05.num_conditional_control_insts          414                       # number of instructions that are conditional controls
system.cpu05.num_fp_alu_accesses                   12                       # Number of float alu accesses
system.cpu05.num_fp_insts                          12                       # number of float instructions
system.cpu05.num_fp_register_reads                 12                       # number of times the floating registers were read
system.cpu05.num_fp_register_writes                 0                       # number of times the floating registers were written
system.cpu05.num_func_calls                       398                       # number of times a function call or return occured
system.cpu05.num_idle_cycles             941092.998040                       # Number of idle cycles
system.cpu05.num_int_alu_accesses                4210                       # Number of integer alu accesses
system.cpu05.num_int_insts                       4210                       # number of integer instructions
system.cpu05.num_int_register_reads              4858                       # number of times the integer registers were read
system.cpu05.num_int_register_writes             3118                       # number of times the integer registers were written
system.cpu05.num_load_insts                      1047                       # Number of load instructions
system.cpu05.num_mem_refs                        1559                       # number of memory refs
system.cpu05.num_store_insts                      512                       # Number of store instructions
system.cpu05.num_vec_alu_accesses                   0                       # Number of vector alu accesses
system.cpu05.num_vec_insts                          0                       # number of vector instructions
system.cpu05.num_vec_register_reads                 0                       # number of times the vector registers were read
system.cpu05.num_vec_register_writes                0                       # number of times the vector registers were written
system.cpu05.op_class::No_OpClass                  10      0.23%      0.23% # Class of executed instruction
system.cpu05.op_class::IntAlu                    2728     63.44%     63.67% # Class of executed instruction
system.cpu05.op_class::IntMult                      1      0.02%     63.70% # Class of executed instruction
system.cpu05.op_class::IntDiv                       2      0.05%     63.74% # Class of executed instruction
system.cpu05.op_class::FloatAdd                     0      0.00%     63.74% # Class of executed instruction
system.cpu05.op_class::FloatCmp                     0      0.00%     63.74% # Class of executed instruction
system.cpu05.op_class::FloatCvt                     0      0.00%     63.74% # Class of executed instruction
system.cpu05.op_class::FloatMult                    0      0.00%     63.74% # Class of executed instruction
system.cpu05.op_class::FloatMultAcc                 0      0.00%     63.74% # Class of executed instruction
system.cpu05.op_class::FloatDiv                     0      0.00%     63.74% # Class of executed instruction
system.cpu05.op_class::FloatMisc                    0      0.00%     63.74% # Class of executed instruction
system.cpu05.op_class::FloatSqrt                    0      0.00%     63.74% # Class of executed instruction
system.cpu05.op_class::SimdAdd                      0      0.00%     63.74% # Class of executed instruction
system.cpu05.op_class::SimdAddAcc                   0      0.00%     63.74% # Class of executed instruction
system.cpu05.op_class::SimdAlu                      0      0.00%     63.74% # Class of executed instruction
system.cpu05.op_class::SimdCmp                      0      0.00%     63.74% # Class of executed instruction
system.cpu05.op_class::SimdCvt                      0      0.00%     63.74% # Class of executed instruction
system.cpu05.op_class::SimdMisc                     0      0.00%     63.74% # Class of executed instruction
system.cpu05.op_class::SimdMult                     0      0.00%     63.74% # Class of executed instruction
system.cpu05.op_class::SimdMultAcc                  0      0.00%     63.74% # Class of executed instruction
system.cpu05.op_class::SimdShift                    0      0.00%     63.74% # Class of executed instruction
system.cpu05.op_class::SimdShiftAcc                 0      0.00%     63.74% # Class of executed instruction
system.cpu05.op_class::SimdSqrt                     0      0.00%     63.74% # Class of executed instruction
system.cpu05.op_class::SimdFloatAdd                 0      0.00%     63.74% # Class of executed instruction
system.cpu05.op_class::SimdFloatAlu                 0      0.00%     63.74% # Class of executed instruction
system.cpu05.op_class::SimdFloatCmp                 0      0.00%     63.74% # Class of executed instruction
system.cpu05.op_class::SimdFloatCvt                 0      0.00%     63.74% # Class of executed instruction
system.cpu05.op_class::SimdFloatDiv                 0      0.00%     63.74% # Class of executed instruction
system.cpu05.op_class::SimdFloatMisc                0      0.00%     63.74% # Class of executed instruction
system.cpu05.op_class::SimdFloatMult                0      0.00%     63.74% # Class of executed instruction
system.cpu05.op_class::SimdFloatMultAcc             0      0.00%     63.74% # Class of executed instruction
system.cpu05.op_class::SimdFloatSqrt                0      0.00%     63.74% # Class of executed instruction
system.cpu05.op_class::SimdAes                      0      0.00%     63.74% # Class of executed instruction
system.cpu05.op_class::SimdAesMix                   0      0.00%     63.74% # Class of executed instruction
system.cpu05.op_class::SimdSha1Hash                 0      0.00%     63.74% # Class of executed instruction
system.cpu05.op_class::SimdSha1Hash2                0      0.00%     63.74% # Class of executed instruction
system.cpu05.op_class::SimdSha256Hash               0      0.00%     63.74% # Class of executed instruction
system.cpu05.op_class::SimdSha256Hash2              0      0.00%     63.74% # Class of executed instruction
system.cpu05.op_class::SimdShaSigma2                0      0.00%     63.74% # Class of executed instruction
system.cpu05.op_class::SimdShaSigma3                0      0.00%     63.74% # Class of executed instruction
system.cpu05.op_class::MemRead                   1051     24.44%     88.19% # Class of executed instruction
system.cpu05.op_class::MemWrite                   496     11.53%     99.72% # Class of executed instruction
system.cpu05.op_class::FloatMemRead                 0      0.00%     99.72% # Class of executed instruction
system.cpu05.op_class::FloatMemWrite               12      0.28%    100.00% # Class of executed instruction
system.cpu05.op_class::IprAccess                    0      0.00%    100.00% # Class of executed instruction
system.cpu05.op_class::InstPrefetch                 0      0.00%    100.00% # Class of executed instruction
system.cpu05.op_class::total                     4300                       # Class of executed instruction
system.cpu05.pwrStateClkGateDist::samples            1                       # Distribution of time spent in the clock gated state
system.cpu05.pwrStateClkGateDist::mean       66633500                       # Distribution of time spent in the clock gated state
system.cpu05.pwrStateClkGateDist::1000-5e+10            1    100.00%    100.00% # Distribution of time spent in the clock gated state
system.cpu05.pwrStateClkGateDist::min_value     66633500                       # Distribution of time spent in the clock gated state
system.cpu05.pwrStateClkGateDist::max_value     66633500                       # Distribution of time spent in the clock gated state
system.cpu05.pwrStateClkGateDist::total             1                       # Distribution of time spent in the clock gated state
system.cpu05.pwrStateResidencyTicks::ON     413546500                       # Cumulative time (in ticks) in various power states
system.cpu05.pwrStateResidencyTicks::CLK_GATED     66633500                       # Cumulative time (in ticks) in various power states
system.cpu06.Branches                             806                       # Number of branches fetched
system.cpu06.committedInsts                      4260                       # Number of instructions committed
system.cpu06.committedOps                        4266                       # Number of ops (including micro ops) committed
system.cpu06.dtb.accesses                           0                       # DTB accesses
system.cpu06.dtb.hits                               0                       # DTB hits
system.cpu06.dtb.misses                             0                       # DTB misses
system.cpu06.dtb.pwrStateResidencyTicks::UNDEFINED    480180000                       # Cumulative time (in ticks) in various power states
system.cpu06.dtb.read_accesses                      0                       # DTB read accesses
system.cpu06.dtb.read_hits                          0                       # DTB read hits
system.cpu06.dtb.read_misses                        0                       # DTB read misses
system.cpu06.dtb.write_accesses                     0                       # DTB write accesses
system.cpu06.dtb.write_hits                         0                       # DTB write hits
system.cpu06.dtb.write_misses                       0                       # DTB write misses
system.cpu06.idle_fraction                   0.979927                       # Percentage of idle cycles
system.cpu06.itb.accesses                           0                       # DTB accesses
system.cpu06.itb.hits                               0                       # DTB hits
system.cpu06.itb.misses                             0                       # DTB misses
system.cpu06.itb.pwrStateResidencyTicks::UNDEFINED    480180000                       # Cumulative time (in ticks) in various power states
system.cpu06.itb.read_accesses                      0                       # DTB read accesses
system.cpu06.itb.read_hits                          0                       # DTB read hits
system.cpu06.itb.read_misses                        0                       # DTB read misses
system.cpu06.itb.write_accesses                     0                       # DTB write accesses
system.cpu06.itb.write_hits                         0                       # DTB write hits
system.cpu06.itb.write_misses                       0                       # DTB write misses
system.cpu06.not_idle_fraction               0.020073                       # Percentage of non-idle cycles
system.cpu06.numCycles                         960359                       # number of cpu cycles simulated
system.cpu06.numPwrStateTransitions                 2                       # Number of power state transitions
system.cpu06.numWorkItemsCompleted                  0                       # number of work items this cpu completed
system.cpu06.numWorkItemsStarted                    0                       # number of work items this cpu started
system.cpu06.num_busy_cycles             19276.981887                       # Number of busy cycles
system.cpu06.num_conditional_control_insts          408                       # number of instructions that are conditional controls
system.cpu06.num_fp_alu_accesses                   12                       # Number of float alu accesses
system.cpu06.num_fp_insts                          12                       # number of float instructions
system.cpu06.num_fp_register_reads                 12                       # number of times the floating registers were read
system.cpu06.num_fp_register_writes                 0                       # number of times the floating registers were written
system.cpu06.num_func_calls                       398                       # number of times a function call or return occured
system.cpu06.num_idle_cycles             941082.018113                       # Number of idle cycles
system.cpu06.num_int_alu_accesses                4176                       # Number of integer alu accesses
system.cpu06.num_int_insts                       4176                       # number of integer instructions
system.cpu06.num_int_register_reads              4819                       # number of times the integer registers were read
system.cpu06.num_int_register_writes             3094                       # number of times the integer registers were written
system.cpu06.num_load_insts                      1038                       # Number of load instructions
system.cpu06.num_mem_refs                        1547                       # number of memory refs
system.cpu06.num_store_insts                      509                       # Number of store instructions
system.cpu06.num_vec_alu_accesses                   0                       # Number of vector alu accesses
system.cpu06.num_vec_insts                          0                       # number of vector instructions
system.cpu06.num_vec_register_reads                 0                       # number of times the vector registers were read
system.cpu06.num_vec_register_writes                0                       # number of times the vector registers were written
system.cpu06.op_class::No_OpClass                  10      0.23%      0.23% # Class of executed instruction
system.cpu06.op_class::IntAlu                    2708     63.45%     63.68% # Class of executed instruction
system.cpu06.op_class::IntMult                      1      0.02%     63.71% # Class of executed instruction
system.cpu06.op_class::IntDiv                       2      0.05%     63.75% # Class of executed instruction
system.cpu06.op_class::FloatAdd                     0      0.00%     63.75% # Class of executed instruction
system.cpu06.op_class::FloatCmp                     0      0.00%     63.75% # Class of executed instruction
system.cpu06.op_class::FloatCvt                     0      0.00%     63.75% # Class of executed instruction
system.cpu06.op_class::FloatMult                    0      0.00%     63.75% # Class of executed instruction
system.cpu06.op_class::FloatMultAcc                 0      0.00%     63.75% # Class of executed instruction
system.cpu06.op_class::FloatDiv                     0      0.00%     63.75% # Class of executed instruction
system.cpu06.op_class::FloatMisc                    0      0.00%     63.75% # Class of executed instruction
system.cpu06.op_class::FloatSqrt                    0      0.00%     63.75% # Class of executed instruction
system.cpu06.op_class::SimdAdd                      0      0.00%     63.75% # Class of executed instruction
system.cpu06.op_class::SimdAddAcc                   0      0.00%     63.75% # Class of executed instruction
system.cpu06.op_class::SimdAlu                      0      0.00%     63.75% # Class of executed instruction
system.cpu06.op_class::SimdCmp                      0      0.00%     63.75% # Class of executed instruction
system.cpu06.op_class::SimdCvt                      0      0.00%     63.75% # Class of executed instruction
system.cpu06.op_class::SimdMisc                     0      0.00%     63.75% # Class of executed instruction
system.cpu06.op_class::SimdMult                     0      0.00%     63.75% # Class of executed instruction
system.cpu06.op_class::SimdMultAcc                  0      0.00%     63.75% # Class of executed instruction
system.cpu06.op_class::SimdShift                    0      0.00%     63.75% # Class of executed instruction
system.cpu06.op_class::SimdShiftAcc                 0      0.00%     63.75% # Class of executed instruction
system.cpu06.op_class::SimdSqrt                     0      0.00%     63.75% # Class of executed instruction
system.cpu06.op_class::SimdFloatAdd                 0      0.00%     63.75% # Class of executed instruction
system.cpu06.op_class::SimdFloatAlu                 0      0.00%     63.75% # Class of executed instruction
system.cpu06.op_class::SimdFloatCmp                 0      0.00%     63.75% # Class of executed instruction
system.cpu06.op_class::SimdFloatCvt                 0      0.00%     63.75% # Class of executed instruction
system.cpu06.op_class::SimdFloatDiv                 0      0.00%     63.75% # Class of executed instruction
system.cpu06.op_class::SimdFloatMisc                0      0.00%     63.75% # Class of executed instruction
system.cpu06.op_class::SimdFloatMult                0      0.00%     63.75% # Class of executed instruction
system.cpu06.op_class::SimdFloatMultAcc             0      0.00%     63.75% # Class of executed instruction
system.cpu06.op_class::SimdFloatSqrt                0      0.00%     63.75% # Class of executed instruction
system.cpu06.op_class::SimdAes                      0      0.00%     63.75% # Class of executed instruction
system.cpu06.op_class::SimdAesMix                   0      0.00%     63.75% # Class of executed instruction
system.cpu06.op_class::SimdSha1Hash                 0      0.00%     63.75% # Class of executed instruction
system.cpu06.op_class::SimdSha1Hash2                0      0.00%     63.75% # Class of executed instruction
system.cpu06.op_class::SimdSha256Hash               0      0.00%     63.75% # Class of executed instruction
system.cpu06.op_class::SimdSha256Hash2              0      0.00%     63.75% # Class of executed instruction
system.cpu06.op_class::SimdShaSigma2                0      0.00%     63.75% # Class of executed instruction
system.cpu06.op_class::SimdShaSigma3                0      0.00%     63.75% # Class of executed instruction
system.cpu06.op_class::MemRead                   1042     24.41%     88.17% # Class of executed instruction
system.cpu06.op_class::MemWrite                   493     11.55%     99.72% # Class of executed instruction
system.cpu06.op_class::FloatMemRead                 0      0.00%     99.72% # Class of executed instruction
system.cpu06.op_class::FloatMemWrite               12      0.28%    100.00% # Class of executed instruction
system.cpu06.op_class::IprAccess                    0      0.00%    100.00% # Class of executed instruction
system.cpu06.op_class::InstPrefetch                 0      0.00%    100.00% # Class of executed instruction
system.cpu06.op_class::total                     4268                       # Class of executed instruction
system.cpu06.pwrStateClkGateDist::samples            1                       # Distribution of time spent in the clock gated state
system.cpu06.pwrStateClkGateDist::mean       60337500                       # Distribution of time spent in the clock gated state
system.cpu06.pwrStateClkGateDist::1000-5e+10            1    100.00%    100.00% # Distribution of time spent in the clock gated state
system.cpu06.pwrStateClkGateDist::min_value     60337500                       # Distribution of time spent in the clock gated state
[...]
system.ruby.network.int_links39.credit_link.pwrStateResidencyTicks::UNDEFINED    480180000                       # Cumulative time (in ticks) in various power states
system.ruby.network.int_links39.network_link.pwrStateResidencyTicks::UNDEFINED    480180000                       # Cumulative time (in ticks) in various power states
system.ruby.network.int_links40.credit_link.pwrStateResidencyTicks::UNDEFINED    480180000                       # Cumulative time (in ticks) in various power states
system.ruby.network.int_links40.network_link.pwrStateResidencyTicks::UNDEFINED    480180000                       # Cumulative time (in ticks) in various power states
system.ruby.network.int_links41.credit_link.pwrStateResidencyTicks::UNDEFINED    480180000                       # Cumulative time (in ticks) in various power states
system.ruby.network.int_links41.network_link.pwrStateResidencyTicks::UNDEFINED    480180000                       # Cumulative time (in ticks) in various power states
system.ruby.network.int_links42.credit_link.pwrStateResidencyTicks::UNDEFINED    480180000                       # Cumulative time (in ticks) in various power states
system.ruby.network.int_links42.network_link.pwrStateResidencyTicks::UNDEFINED    480180000                       # Cumulative time (in ticks) in various power states
system.ruby.network.int_links43.credit_link.pwrStateResidencyTicks::UNDEFINED    480180000                       # Cumulative time (in ticks) in various power states
system.ruby.network.int_links43.network_link.pwrStateResidencyTicks::UNDEFINED    480180000                       # Cumulative time (in ticks) in various power states
system.ruby.network.int_links44.credit_link.pwrStateResidencyTicks::UNDEFINED    480180000                       # Cumulative time (in ticks) in various power states
system.ruby.network.int_links44.network_link.pwrStateResidencyTicks::UNDEFINED    480180000                       # Cumulative time (in ticks) in various power states
system.ruby.network.int_links45.credit_link.pwrStateResidencyTicks::UNDEFINED    480180000                       # Cumulative time (in ticks) in various power states
system.ruby.network.int_links45.network_link.pwrStateResidencyTicks::UNDEFINED    480180000                       # Cumulative time (in ticks) in various power states
system.ruby.network.int_links46.credit_link.pwrStateResidencyTicks::UNDEFINED    480180000                       # Cumulative time (in ticks) in various power states
system.ruby.network.int_links46.network_link.pwrStateResidencyTicks::UNDEFINED    480180000                       # Cumulative time (in ticks) in various power states
system.ruby.network.int_links47.credit_link.pwrStateResidencyTicks::UNDEFINED    480180000                       # Cumulative time (in ticks) in various power states
system.ruby.network.int_links47.network_link.pwrStateResidencyTicks::UNDEFINED    480180000                       # Cumulative time (in ticks) in various power states
system.ruby.network.netifs00.pwrStateResidencyTicks::UNDEFINED    480180000                       # Cumulative time (in ticks) in various power states
system.ruby.network.netifs01.pwrStateResidencyTicks::UNDEFINED    480180000                       # Cumulative time (in ticks) in various power states
system.ruby.network.netifs02.pwrStateResidencyTicks::UNDEFINED    480180000                       # Cumulative time (in ticks) in various power states
system.ruby.network.netifs03.pwrStateResidencyTicks::UNDEFINED    480180000                       # Cumulative time (in ticks) in various power states
system.ruby.network.netifs04.pwrStateResidencyTicks::UNDEFINED    480180000                       # Cumulative time (in ticks) in various power states
system.ruby.network.netifs05.pwrStateResidencyTicks::UNDEFINED    480180000                       # Cumulative time (in ticks) in various power states
system.ruby.network.netifs06.pwrStateResidencyTicks::UNDEFINED    480180000                       # Cumulative time (in ticks) in various power states
system.ruby.network.netifs07.pwrStateResidencyTicks::UNDEFINED    480180000                       # Cumulative time (in ticks) in various power states
system.ruby.network.netifs08.pwrStateResidencyTicks::UNDEFINED    480180000                       # Cumulative time (in ticks) in various power states
system.ruby.network.netifs09.pwrStateResidencyTicks::UNDEFINED    480180000                       # Cumulative time (in ticks) in various power states
system.ruby.network.netifs10.pwrStateResidencyTicks::UNDEFINED    480180000                       # Cumulative time (in ticks) in various power states
system.ruby.network.netifs11.pwrStateResidencyTicks::UNDEFINED    480180000                       # Cumulative time (in ticks) in various power states
system.ruby.network.netifs12.pwrStateResidencyTicks::UNDEFINED    480180000                       # Cumulative time (in ticks) in various power states
system.ruby.network.netifs13.pwrStateResidencyTicks::UNDEFINED    480180000                       # Cumulative time (in ticks) in various power states
system.ruby.network.netifs14.pwrStateResidencyTicks::UNDEFINED    480180000                       # Cumulative time (in ticks) in various power states
system.ruby.network.netifs15.pwrStateResidencyTicks::UNDEFINED    480180000                       # Cumulative time (in ticks) in various power states
system.ruby.network.netifs16.pwrStateResidencyTicks::UNDEFINED    480180000                       # Cumulative time (in ticks) in various power states
system.ruby.network.netifs17.pwrStateResidencyTicks::UNDEFINED    480180000                       # Cumulative time (in ticks) in various power states
system.ruby.network.netifs18.pwrStateResidencyTicks::UNDEFINED    480180000                       # Cumulative time (in ticks) in various power states
system.ruby.network.netifs19.pwrStateResidencyTicks::UNDEFINED    480180000                       # Cumulative time (in ticks) in various power states
system.ruby.network.netifs20.pwrStateResidencyTicks::UNDEFINED    480180000                       # Cumulative time (in ticks) in various power states
system.ruby.network.netifs21.pwrStateResidencyTicks::UNDEFINED    480180000                       # Cumulative time (in ticks) in various power states
system.ruby.network.netifs22.pwrStateResidencyTicks::UNDEFINED    480180000                       # Cumulative time (in ticks) in various power states
system.ruby.network.netifs23.pwrStateResidencyTicks::UNDEFINED    480180000                       # Cumulative time (in ticks) in various power states
system.ruby.network.netifs24.pwrStateResidencyTicks::UNDEFINED    480180000                       # Cumulative time (in ticks) in various power states
system.ruby.network.netifs25.pwrStateResidencyTicks::UNDEFINED    480180000                       # Cumulative time (in ticks) in various power states
system.ruby.network.netifs26.pwrStateResidencyTicks::UNDEFINED    480180000                       # Cumulative time (in ticks) in various power states
system.ruby.network.netifs27.pwrStateResidencyTicks::UNDEFINED    480180000                       # Cumulative time (in ticks) in various power states
system.ruby.network.netifs28.pwrStateResidencyTicks::UNDEFINED    480180000                       # Cumulative time (in ticks) in various power states
system.ruby.network.netifs29.pwrStateResidencyTicks::UNDEFINED    480180000                       # Cumulative time (in ticks) in various power states
system.ruby.network.netifs30.pwrStateResidencyTicks::UNDEFINED    480180000                       # Cumulative time (in ticks) in various power states
system.ruby.network.netifs31.pwrStateResidencyTicks::UNDEFINED    480180000                       # Cumulative time (in ticks) in various power states
system.ruby.network.netifs32.pwrStateResidencyTicks::UNDEFINED    480180000                       # Cumulative time (in ticks) in various power states
system.ruby.network.netifs33.pwrStateResidencyTicks::UNDEFINED    480180000                       # Cumulative time (in ticks) in various power states
system.ruby.network.netifs34.pwrStateResidencyTicks::UNDEFINED    480180000                       # Cumulative time (in ticks) in various power states
system.ruby.network.netifs35.pwrStateResidencyTicks::UNDEFINED    480180000                       # Cumulative time (in ticks) in various power states
system.ruby.network.packet_network_latency |      218018                       |      237232                       |       54298                      
system.ruby.network.packet_queueing_latency |       44331                       |       28960                       |        6432                      
system.ruby.network.packets_injected     |       19269     42.73%     42.73% |       19457     43.14%     85.87% |        6372     14.13%    100.00%
system.ruby.network.packets_injected::total        45098                      
system.ruby.network.packets_received     |       19269     42.73%     42.73% |       19457     43.14%     85.87% |        6372     14.13%    100.00%
system.ruby.network.packets_received::total        45098                      
system.ruby.network.pwrStateResidencyTicks::UNDEFINED    480180000                       # Cumulative time (in ticks) in various power states
system.ruby.network.routers00.buffer_reads        91578                      
system.ruby.network.routers00.buffer_writes        91578                      
system.ruby.network.routers00.crossbar_activity        91578                      
system.ruby.network.routers00.pwrStateResidencyTicks::UNDEFINED    480180000                       # Cumulative time (in ticks) in various power states
system.ruby.network.routers00.sw_input_arbiter_activity        91620                      
system.ruby.network.routers00.sw_output_arbiter_activity        91578                      
system.ruby.network.routers01.buffer_reads        40176                      
system.ruby.network.routers01.buffer_writes        40176                      
system.ruby.network.routers01.crossbar_activity        40176                      
system.ruby.network.routers01.pwrStateResidencyTicks::UNDEFINED    480180000                       # Cumulative time (in ticks) in various power states
system.ruby.network.routers01.sw_input_arbiter_activity        40184                      
system.ruby.network.routers01.sw_output_arbiter_activity        40176                      
system.ruby.network.routers02.buffer_reads        26524                      
system.ruby.network.routers02.buffer_writes        26524                      
system.ruby.network.routers02.crossbar_activity        26524                      
system.ruby.network.routers02.pwrStateResidencyTicks::UNDEFINED    480180000                       # Cumulative time (in ticks) in various power states
system.ruby.network.routers02.sw_input_arbiter_activity        26544                      
system.ruby.network.routers02.sw_output_arbiter_activity        26524                      
system.ruby.network.routers03.buffer_reads        15189                      
system.ruby.network.routers03.buffer_writes        15189                      
system.ruby.network.routers03.crossbar_activity        15189                      
system.ruby.network.routers03.pwrStateResidencyTicks::UNDEFINED    480180000                       # Cumulative time (in ticks) in various power states
system.ruby.network.routers03.sw_input_arbiter_activity        15196                      
system.ruby.network.routers03.sw_output_arbiter_activity        15189                      
system.ruby.network.routers04.buffer_reads        51360                      
system.ruby.network.routers04.buffer_writes        51360                      
system.ruby.network.routers04.crossbar_activity        51360                      
system.ruby.network.routers04.pwrStateResidencyTicks::UNDEFINED    480180000                       # Cumulative time (in ticks) in various power states
system.ruby.network.routers04.sw_input_arbiter_activity        51389                      
system.ruby.network.routers04.sw_output_arbiter_activity        51360                      
system.ruby.network.routers05.buffer_reads        20933                      
system.ruby.network.routers05.buffer_writes        20933                      
system.ruby.network.routers05.crossbar_activity        20933                      
system.ruby.network.routers05.pwrStateResidencyTicks::UNDEFINED    480180000                       # Cumulative time (in ticks) in various power states
system.ruby.network.routers05.sw_input_arbiter_activity        20957                      
system.ruby.network.routers05.sw_output_arbiter_activity        20933                      
system.ruby.network.routers06.buffer_reads        14874                      
system.ruby.network.routers06.buffer_writes        14874                      
system.ruby.network.routers06.crossbar_activity        14874                      
system.ruby.network.routers06.pwrStateResidencyTicks::UNDEFINED    480180000                       # Cumulative time (in ticks) in various power states
system.ruby.network.routers06.sw_input_arbiter_activity        14934                      
system.ruby.network.routers06.sw_output_arbiter_activity        14874                      
system.ruby.network.routers07.buffer_reads        11717                      
system.ruby.network.routers07.buffer_writes        11717                      
system.ruby.network.routers07.crossbar_activity        11717                      
system.ruby.network.routers07.pwrStateResidencyTicks::UNDEFINED    480180000                       # Cumulative time (in ticks) in various power states
system.ruby.network.routers07.sw_input_arbiter_activity        11732                      
system.ruby.network.routers07.sw_output_arbiter_activity        11717                      
system.ruby.network.routers08.buffer_reads        34724                      
system.ruby.network.routers08.buffer_writes        34724                      
system.ruby.network.routers08.crossbar_activity        34724                      
system.ruby.network.routers08.pwrStateResidencyTicks::UNDEFINED    480180000                       # Cumulative time (in ticks) in various power states
system.ruby.network.routers08.sw_input_arbiter_activity        34749                      
system.ruby.network.routers08.sw_output_arbiter_activity        34724                      
system.ruby.network.routers09.buffer_reads        16287                      
system.ruby.network.routers09.buffer_writes        16287                      
system.ruby.network.routers09.crossbar_activity        16287                      
system.ruby.network.routers09.pwrStateResidencyTicks::UNDEFINED    480180000                       # Cumulative time (in ticks) in various power states
system.ruby.network.routers09.sw_input_arbiter_activity        16293                      
system.ruby.network.routers09.sw_output_arbiter_activity        16287                      
system.ruby.network.routers10.buffer_reads        14853                      
system.ruby.network.routers10.buffer_writes        14853                      
system.ruby.network.routers10.crossbar_activity        14853                      
system.ruby.network.routers10.pwrStateResidencyTicks::UNDEFINED    480180000                       # Cumulative time (in ticks) in various power states
system.ruby.network.routers10.sw_input_arbiter_activity        14869                      
system.ruby.network.routers10.sw_output_arbiter_activity        14853                      
system.ruby.network.routers11.buffer_reads        10949                      
system.ruby.network.routers11.buffer_writes        10949                      
system.ruby.network.routers11.crossbar_activity        10949                      
system.ruby.network.routers11.pwrStateResidencyTicks::UNDEFINED    480180000                       # Cumulative time (in ticks) in various power states
system.ruby.network.routers11.sw_input_arbiter_activity        10963                      
system.ruby.network.routers11.sw_output_arbiter_activity        10949                      
system.ruby.network.routers12.buffer_reads        24642                      
system.ruby.network.routers12.buffer_writes        24642                      
system.ruby.network.routers12.crossbar_activity        24642                      
system.ruby.network.routers12.pwrStateResidencyTicks::UNDEFINED    480180000                       # Cumulative time (in ticks) in various power states
system.ruby.network.routers12.sw_input_arbiter_activity        24651                      
system.ruby.network.routers12.sw_output_arbiter_activity        24642                      
system.ruby.network.routers13.buffer_reads        20832                      
system.ruby.network.routers13.buffer_writes        20832                      
system.ruby.network.routers13.crossbar_activity        20832                      
system.ruby.network.routers13.pwrStateResidencyTicks::UNDEFINED    480180000                       # Cumulative time (in ticks) in various power states
system.ruby.network.routers13.sw_input_arbiter_activity        20834                      
system.ruby.network.routers13.sw_output_arbiter_activity        20832                      
system.ruby.network.routers14.buffer_reads        16046                      
system.ruby.network.routers14.buffer_writes        16046                      
system.ruby.network.routers14.crossbar_activity        16046                      
system.ruby.network.routers14.pwrStateResidencyTicks::UNDEFINED    480180000                       # Cumulative time (in ticks) in various power states
system.ruby.network.routers14.sw_input_arbiter_activity        16065                      
system.ruby.network.routers14.sw_output_arbiter_activity        16046                      
system.ruby.network.routers15.buffer_reads        10320                      
system.ruby.network.routers15.buffer_writes        10320                      
system.ruby.network.routers15.crossbar_activity        10320                      
system.ruby.network.routers15.pwrStateResidencyTicks::UNDEFINED    480180000                       # Cumulative time (in ticks) in various power states
system.ruby.network.routers15.sw_input_arbiter_activity        10327                      
system.ruby.network.routers15.sw_output_arbiter_activity        10320                      
system.ruby.outstanding_req_hist_seqr::bucket_size            1                      
system.ruby.outstanding_req_hist_seqr::max_bucket            9                      
system.ruby.outstanding_req_hist_seqr::samples       263842                      
system.ruby.outstanding_req_hist_seqr::mean            1                      
system.ruby.outstanding_req_hist_seqr::gmean            1                      
system.ruby.outstanding_req_hist_seqr    |           0      0.00%      0.00% |      263842    100.00%    100.00% |           0      0.00%    100.00% |           0      0.00%    100.00% |           0      0.00%    100.00% |           0      0.00%    100.00% |           0      0.00%    100.00% |           0      0.00%    100.00% |           0      0.00%    100.00% |           0      0.00%    100.00%
system.ruby.outstanding_req_hist_seqr::total       263842                      
system.ruby.pwrStateResidencyTicks::UNDEFINED    480180000                       # Cumulative time (in ticks) in various power states
system.sys_port_proxy.pwrStateResidencyTicks::UNDEFINED    480180000                       # Cumulative time (in ticks) in various power states
system.voltage_domain.voltage                       1                       # Voltage in Volts

---------- End Simulation Statistics   ----------
