
---------- Begin Simulation Statistics ----------
final_tick                                  723231000                       # Number of ticks from beginning of simulation (restored from checkpoints and never reset)
host_inst_rate                                  22466                       # Simulator instruction rate (inst/s)
host_mem_usage                                5160748                       # Number of bytes of host memory used
host_op_rate                                    22518                       # Simulator op (including micro ops) rate (op/s)
host_seconds                                     7.28                       # Real time elapsed on the host
host_tick_rate                               99353127                       # Simulator tick rate (ticks/s)
sim_freq                                 1000000000000                       # Frequency of simulated ticks
sim_insts                                      163532                       # Number of instructions simulated
sim_ops                                        163914                       # Number of ops (including micro ops) simulated
sim_seconds                                  0.000723                       # Number of seconds simulated
sim_ticks                                   723231000                       # Number of ticks simulated
system.clk_domain.clock                          1000                       # Clock period in ticks
system.cpu00.Branches                           22357                       # Number of branches fetched
system.cpu00.committedInsts                    100000                       # Number of instructions committed
system.cpu00.committedOps                      100293                       # Number of ops (including micro ops) committed
system.cpu00.dtb.accesses                           0                       # DTB accesses
system.cpu00.dtb.hits                               0                       # DTB hits
system.cpu00.dtb.misses                             0                       # DTB misses
system.cpu00.dtb.pwrStateResidencyTicks::UNDEFINED    723231000                       # Cumulative time (in ticks) in various power states
system.cpu00.dtb.read_accesses                      0                       # DTB read accesses
system.cpu00.dtb.read_hits                          0                       # DTB read hits
system.cpu00.dtb.read_misses                        0                       # DTB read misses
system.cpu00.dtb.write_accesses                     0                       # DTB write accesses
system.cpu00.dtb.write_hits                         0                       # DTB write hits
system.cpu00.dtb.write_misses                       0                       # DTB write misses
system.cpu00.idle_fraction                   0.003273                       # Percentage of idle cycles
system.cpu00.itb.accesses                           0                       # DTB accesses
system.cpu00.itb.hits                               0                       # DTB hits
system.cpu00.itb.misses                             0                       # DTB misses
system.cpu00.itb.pwrStateResidencyTicks::UNDEFINED    723231000                       # Cumulative time (in ticks) in various power states
system.cpu00.itb.read_accesses                      0                       # DTB read accesses
system.cpu00.itb.read_hits                          0                       # DTB read hits
system.cpu00.itb.read_misses                        0                       # DTB read misses
system.cpu00.itb.write_accesses                     0                       # DTB write accesses
system.cpu00.itb.write_hits                         0                       # DTB write hits
system.cpu00.itb.write_misses                       0                       # DTB write misses
system.cpu00.not_idle_fraction               0.996727                       # Percentage of non-idle cycles
system.cpu00.numCycles                        1446462                       # number of cpu cycles simulated
system.cpu00.numPwrStateTransitions                 2                       # Number of power state transitions
system.cpu00.numWorkItemsCompleted                  0                       # number of work items this cpu completed
system.cpu00.numWorkItemsStarted                    0                       # number of work items this cpu started
system.cpu00.num_busy_cycles             1441728.000007                       # Number of busy cycles
system.cpu00.num_conditional_control_insts        15945                       # number of instructions that are conditional controls
system.cpu00.num_fp_alu_accesses                   12                       # Number of float alu accesses
system.cpu00.num_fp_insts                          12                       # number of float instructions
system.cpu00.num_fp_register_reads                 12                       # number of times the floating registers were read
system.cpu00.num_fp_register_writes                 0                       # number of times the floating registers were written
system.cpu00.num_func_calls                      6412                       # number of times a function call or return occured
system.cpu00.num_idle_cycles              4733.999993                       # Number of idle cycles
system.cpu00.num_int_alu_accesses               98835                       # Number of integer alu accesses
system.cpu00.num_int_insts                      98835                       # number of integer instructions
system.cpu00.num_int_register_reads            120856                       # number of times the integer registers were read
system.cpu00.num_int_register_writes            64470                       # number of times the integer registers were written
system.cpu00.num_load_insts                     20279                       # Number of load instructions
system.cpu00.num_mem_refs                       36536                       # number of memory refs
system.cpu00.num_store_insts                    16257                       # Number of store instructions
system.cpu00.num_vec_alu_accesses                   0                       # Number of vector alu accesses
system.cpu00.num_vec_insts                          0                       # number of vector instructions
system.cpu00.num_vec_register_reads                 0                       # number of times the vector registers were read
system.cpu00.num_vec_register_writes                0                       # number of times the vector registers were written
system.cpu00.op_class::No_OpClass                 860      0.86%      0.86% # Class of executed instruction
system.cpu00.op_class::IntAlu                   62934     62.70%     63.56% # Class of executed instruction
system.cpu00.op_class::IntMult                     30      0.03%     63.59% # Class of executed instruction
system.cpu00.op_class::IntDiv                       6      0.01%     63.60% # Class of executed instruction
system.cpu00.op_class::FloatAdd                     0      0.00%     63.60% # Class of executed instruction
system.cpu00.op_class::FloatCmp                     0      0.00%     63.60% # Class of executed instruction
system.cpu00.op_class::FloatCvt                     0      0.00%     63.60% # Class of executed instruction
system.cpu00.op_class::FloatMult                    0      0.00%     63.60% # Class of executed instruction
system.cpu00.op_class::FloatMultAcc                 0      0.00%     63.60% # Class of executed instruction
system.cpu00.op_class::FloatDiv                     0      0.00%     63.60% # Class of executed instruction
system.cpu00.op_class::FloatMisc                    0      0.00%     63.60% # Class of executed instruction
system.cpu00.op_class::FloatSqrt                    0      0.00%     63.60% # Class of executed instruction
system.cpu00.op_class::SimdAdd                      0      0.00%     63.60% # Class of executed instruction
system.cpu00.op_class::SimdAddAcc                   0      0.00%     63.60% # Class of executed instruction
system.cpu00.op_class::SimdAlu                      0      0.00%     63.60% # Class of executed instruction
system.cpu00.op_class::SimdCmp                      0      0.00%     63.60% # Class of executed instruction
system.cpu00.op_class::SimdCvt                      0      0.00%     63.60% # Class of executed instruction
system.cpu00.op_class::SimdMisc                     0      0.00%     63.60% # Class of executed instruction
system.cpu00.op_class::SimdMult                     0      0.00%     63.60% # Class of executed instruction
system.cpu00.op_class::SimdMultAcc                  0      0.00%     63.60% # Class of executed instruction
system.cpu00.op_class::SimdShift                    0      0.00%     63.60% # Class of executed instruction
system.cpu00.op_class::SimdShiftAcc                 0      0.00%     63.60% # Class of executed instruction
system.cpu00.op_class::SimdSqrt                     0      0.00%     63.60% # Class of executed instruction
system.cpu00.op_class::SimdFloatAdd                 0      0.00%     63.60% # Class of executed instruction
system.cpu00.op_class::SimdFloatAlu                 0      0.00%     63.60% # Class of executed instruction
system.cpu00.op_class::SimdFloatCmp                 0      0.00%     63.60% # Class of executed instruction
system.cpu00.op_class::SimdFloatCvt                 0      0.00%     63.60% # Class of executed instruction
system.cpu00.op_class::SimdFloatDiv                 0      0.00%     63.60% # Class of executed instruction
system.cpu00.op_class::SimdFloatMisc                0      0.00%     63.60% # Class of executed instruction
system.cpu00.op_class::SimdFloatMult                0      0.00%     63.60% # Class of executed instruction
system.cpu00.op_class::SimdFloatMultAcc             0      0.00%     63.60% # Class of executed instruction
system.cpu00.op_class::SimdFloatSqrt                0      0.00%     63.60% # Class of executed instruction
system.cpu00.op_class::SimdAes                      0      0.00%     63.60% # Class of executed instruction
system.cpu00.op_class::SimdAesMix                   0      0.00%     63.60% # Class of executed instruction
system.cpu00.op_class::SimdSha1Hash                 0      0.00%     63.60% # Class of executed instruction
system.cpu00.op_class::SimdSha1Hash2                0      0.00%     63.60% # Class of executed instruction
system.cpu00.op_class::SimdSha256Hash               0      0.00%     63.60% # Class of executed instruction
system.cpu00.op_class::SimdSha256Hash2              0      0.00%     63.60% # Class of executed instruction
system.cpu00.op_class::SimdShaSigma2                0      0.00%     63.60% # Class of executed instruction
system.cpu00.op_class::SimdShaSigma3                0      0.00%     63.60% # Class of executed instruction
system.cpu00.op_class::MemRead                  20564     20.49%     84.09% # Class of executed instruction
system.cpu00.op_class::MemWrite                 15960     15.90%     99.99% # Class of executed instruction
system.cpu00.op_class::FloatMemRead                 0      0.00%     99.99% # Class of executed instruction
system.cpu00.op_class::FloatMemWrite               12      0.01%    100.00% # Class of executed instruction
system.cpu00.op_class::IprAccess                    0      0.00%    100.00% # Class of executed instruction
system.cpu00.op_class::InstPrefetch                 0      0.00%    100.00% # Class of executed instruction
system.cpu00.op_class::total                   100366                       # Class of executed instruction
system.cpu00.pwrStateClkGateDist::samples            1                       # Distribution of time spent in the clock gated state
system.cpu00.pwrStateClkGateDist::mean        2367000                       # Distribution of time spent in the clock gated state
system.cpu00.pwrStateClkGateDist::1000-5e+10            1    100.00%    100.00% # Distribution of time spent in the clock gated state
system.cpu00.pwrStateClkGateDist::min_value      2367000                       # Distribution of time spent in the clock gated state
system.cpu00.pwrStateClkGateDist::max_value      2367000                       # Distribution of time spent in the clock gated state
system.cpu00.pwrStateClkGateDist::total             1                       # Distribution of time spent in the clock gated state
system.cpu00.pwrStateResidencyTicks::ON     720864000                       # Cumulative time (in ticks) in various power states
system.cpu00.pwrStateResidencyTicks::CLK_GATED      2367000                       # Cumulative time (in ticks) in various power states
system.cpu00.workload.numSyscalls                  72                       # Number of system calls
system.cpu01.Branches                             815                       # Number of branches fetched
system.cpu01.committedInsts                      4340                       # Number of instructions committed
system.cpu01.committedOps                        4346                       # Number of ops (including micro ops) committed
system.cpu01.dtb.accesses                           0                       # DTB accesses
system.cpu01.dtb.hits                               0                       # DTB hits
system.cpu01.dtb.misses                             0                       # DTB misses
system.cpu01.dtb.pwrStateResidencyTicks::UNDEFINED    723231000                       # Cumulative time (in ticks) in various power states
system.cpu01.dtb.read_accesses                      0                       # DTB read accesses
system.cpu01.dtb.read_hits                          0                       # DTB read hits
system.cpu01.dtb.read_misses                        0                       # DTB read misses
system.cpu01.dtb.write_accesses                     0                       # DTB write accesses
system.cpu01.dtb.write_hits                         0                       # DTB write hits
system.cpu01.dtb.write_misses                       0                       # DTB write misses
system.cpu01.idle_fraction                   0.981959                       # Percentage of idle cycles
system.cpu01.itb.accesses                           0                       # DTB accesses
system.cpu01.itb.hits                               0                       # DTB hits
system.cpu01.itb.misses                             0                       # DTB misses
system.cpu01.itb.pwrStateResidencyTicks::UNDEFINED    723231000                       # Cumulative time (in ticks) in various power states
system.cpu01.itb.read_accesses                      0                       # DTB read accesses
system.cpu01.itb.read_hits                          0                       # DTB read hits
system.cpu01.itb.read_misses                        0                       # DTB read misses
system.cpu01.itb.write_accesses                     0                       # DTB write accesses
system.cpu01.itb.write_hits                         0                       # DTB write hits
system.cpu01.itb.write_misses                       0                       # DTB write misses
system.cpu01.not_idle_fraction               0.018041                       # Percentage of non-idle cycles
system.cpu01.numCycles                        1446462                       # number of cpu cycles simulated
system.cpu01.numPwrStateTransitions                 2                       # Number of power state transitions
system.cpu01.numWorkItemsCompleted                  0                       # number of work items this cpu completed
system.cpu01.numWorkItemsStarted                    0                       # number of work items this cpu started
system.cpu01.num_busy_cycles             26096.001964                       # Number of busy cycles
system.cpu01.num_conditional_control_insts          426                       # number of instructions that are conditional controls
system.cpu01.num_fp_alu_accesses                   12                       # Number of float alu accesses
system.cpu01.num_fp_insts                          12                       # number of float instructions
system.cpu01.num_fp_register_reads                 12                       # number of times the floating registers were read
system.cpu01.num_fp_register_writes                 0                       # number of times the floating registers were written
system.cpu01.num_func_calls                       389                       # number of times a function call or return occured
system.cpu01.num_idle_cycles             1420365.998036                       # Number of idle cycles
system.cpu01.num_int_alu_accesses                4270                       # Number of integer alu accesses
system.cpu01.num_int_insts                       4270                       # number of integer instructions
system.cpu01.num_int_register_reads              4924                       # number of times the integer registers were read
system.cpu01.num_int_register_writes             3160                       # number of times the integer registers were written
system.cpu01.num_load_insts                      1058                       # Number of load instructions
system.cpu01.num_mem_refs                        1578                       # number of memory refs
system.cpu01.num_store_insts                      520                       # Number of store instructions
system.cpu01.num_vec_alu_accesses                   0                       # Number of vector alu accesses
system.cpu01.num_vec_insts                          0                       # number of vector instructions
system.cpu01.num_vec_register_reads                 0                       # number of times the vector registers were read
system.cpu01.num_vec_register_writes                0                       # number of times the vector registers were written
system.cpu01.op_class::No_OpClass                  10      0.23%      0.23% # Class of executed instruction
system.cpu01.op_class::IntAlu                    2757     63.41%     63.64% # Class of executed instruction
system.cpu01.op_class::IntMult                      1      0.02%     63.66% # Class of executed instruction
system.cpu01.op_class::IntDiv                       2      0.05%     63.71% # Class of executed instruction
system.cpu01.op_class::FloatAdd                     0      0.00%     63.71% # Class of executed instruction
system.cpu01.op_class::FloatCmp                     0      0.00%     63.71% # Class of executed instruction
system.cpu01.op_class::FloatCvt                     0      0.00%     63.71% # Class of executed instruction
system.cpu01.op_class::FloatMult                    0      0.00%     63.71% # Class of executed instruction
system.cpu01.op_class::FloatMultAcc                 0      0.00%     63.71% # Class of executed instruction
system.cpu01.op_class::FloatDiv                     0      0.00%     63.71% # Class of executed instruction
system.cpu01.op_class::FloatMisc                    0      0.00%     63.71% # Class of executed instruction
system.cpu01.op_class::FloatSqrt                    0      0.00%     63.71% # Class of executed instruction
system.cpu01.op_class::SimdAdd                      0      0.00%     63.71% # Class of executed instruction
system.cpu01.op_class::SimdAddAcc                   0      0.00%     63.71% # Class of executed instruction
system.cpu01.op_class::SimdAlu                      0      0.00%     63.71% # Class of executed instruction
system.cpu01.op_class::SimdCmp                      0      0.00%     63.71% # Class of executed instruction
system.cpu01.op_class::SimdCvt                      0      0.00%     63.71% # Class of executed instruction
system.cpu01.op_class::SimdMisc                     0      0.00%     63.71% # Class of executed instruction
system.cpu01.op_class::SimdMult                     0      0.00%     63.71% # Class of executed instruction
system.cpu01.op_class::SimdMultAcc                  0      0.00%     63.71% # Class of executed instruction
system.cpu01.op_class::SimdShift                    0      0.00%     63.71% # Class of executed instruction
system.cpu01.op_class::SimdShiftAcc                 0      0.00%     63.71% # Class of executed instruction
system.cpu01.op_class::SimdSqrt                     0      0.00%     63.71% # Class of executed instruction
system.cpu01.op_class::SimdFloatAdd                 0      0.00%     63.71% # Class of executed instruction
system.cpu01.op_class::SimdFloatAlu                 0      0.00%     63.71% # Class of executed instruction
system.cpu01.op_class::SimdFloatCmp                 0      0.00%     63.71% # Class of executed instruction
system.cpu01.op_class::SimdFloatCvt                 0      0.00%     63.71% # Class of executed instruction
system.cpu01.op_class::SimdFloatDiv                 0      0.00%     63.71% # Class of executed instruction
system.cpu01.op_class::SimdFloatMisc                0      0.00%     63.71% # Class of executed instruction
system.cpu01.op_class::SimdFloatMult                0      0.00%     63.71% # Class of executed instruction
system.cpu01.op_class::SimdFloatMultAcc             0      0.00%     63.71% # Class of executed instruction
system.cpu01.op_class::SimdFloatSqrt                0      0.00%     63.71% # Class of executed instruction
system.cpu01.op_class::SimdAes                      0      0.00%     63.71% # Class of executed instruction
system.cpu01.op_class::SimdAesMix                   0      0.00%     63.71% # Class of executed instruction
system.cpu01.op_class::SimdSha1Hash                 0      0.00%     63.71% # Class of executed instruction
system.cpu01.op_class::SimdSha1Hash2                0      0.00%     63.71% # Class of executed instruction
system.cpu01.op_class::SimdSha256Hash               0      0.00%     63.71% # Class of executed instruction
system.cpu01.op_class::SimdSha256Hash2              0      0.00%     63.71% # Class of executed instruction
system.cpu01.op_class::SimdShaSigma2                0      0.00%     63.71% # Class of executed instruction
system.cpu01.op_class::SimdShaSigma3                0      0.00%     63.71% # Class of executed instruction
system.cpu01.op_class::MemRead                   1062     24.43%     88.13% # Class of executed instruction
system.cpu01.op_class::MemWrite                   504     11.59%     99.72% # Class of executed instruction
system.cpu01.op_class::FloatMemRead                 0      0.00%     99.72% # Class of executed instruction
system.cpu01.op_class::FloatMemWrite               12      0.28%    100.00% # Class of executed instruction
system.cpu01.op_class::IprAccess                    0      0.00%    100.00% # Class of executed instruction
system.cpu01.op_class::InstPrefetch                 0      0.00%    100.00% # Class of executed instruction
system.cpu01.op_class::total                     4348                       # Class of executed instruction
system.cpu01.pwrStateClkGateDist::samples            1                       # Distribution of time spent in the clock gated state
system.cpu01.pwrStateClkGateDist::mean      144123500                       # Distribution of time spent in the clock gated state
system.cpu01.pwrStateClkGateDist::1000-5e+10            1    100.00%    100.00% # Distribution of time spent in the clock gated state
system.cpu01.pwrStateClkGateDist::min_value    144123500                       # Distribution of time spent in the clock gated state
system.cpu01.pwrStateClkGateDist::max_value    144123500                       # Distribution of time spent in the clock gated state
system.cpu01.pwrStateClkGateDist::total             1                       # Distribution of time spent in the clock gated state
system.cpu01.pwrStateResidencyTicks::ON     579107500                       # Cumulative time (in ticks) in various power states
system.cpu01.pwrStateResidencyTicks::CLK_GATED    144123500                       # Cumulative time (in ticks) in various power states
system.cpu02.Branches                             785                       # Number of branches fetched
system.cpu02.committedInsts                      4175                       # Number of instructions committed
system.cpu02.committedOps                        4181                       # Number of ops (including micro ops) committed
system.cpu02.dtb.accesses                           0                       # DTB accesses
system.cpu02.dtb.hits                               0                       # DTB hits
system.cpu02.dtb.misses                             0                       # DTB misses
system.cpu02.dtb.pwrStateResidencyTicks::UNDEFINED    723231000                       # Cumulative time (in ticks) in various power states
system.cpu02.dtb.read_accesses                      0                       # DTB read accesses
system.cpu02.dtb.read_hits                          0                       # DTB read hits
system.cpu02.dtb.read_misses                        0                       # DTB read misses
system.cpu02.dtb.write_accesses                     0                       # DTB write accesses
system.cpu02.dtb.write_hits                         0                       # DTB write hits
system.cpu02.dtb.write_misses                       0                       # DTB write misses
system.cpu02.idle_fraction                   0.984698                       # Percentage of idle cycles
system.cpu02.itb.accesses                           0                       # DTB accesses
system.cpu02.itb.hits                               0                       # DTB hits
system.cpu02.itb.misses                             0                       # DTB misses
system.cpu02.itb.pwrStateResidencyTicks::UNDEFINED    723231000                       # Cumulative time (in ticks) in various power states
system.cpu02.itb.read_accesses                      0                       # DTB read accesses
system.cpu02.itb.read_hits                          0                       # DTB read hits
system.cpu02.itb.read_misses                        0                       # DTB read misses
system.cpu02.itb.write_accesses                     0                       # DTB write accesses
system.cpu02.itb.write_hits                         0                       # DTB write hits
system.cpu02.itb.write_misses                       0                       # DTB write misses
system.cpu02.not_idle_fraction               0.015302                       # Percentage of non-idle cycles
system.cpu02.numCycles                        1446461                       # number of cpu cycles simulated
system.cpu02.numPwrStateTransitions                 2                       # Number of power state transitions
system.cpu02.numWorkItemsCompleted                  0                       # number of work items this cpu completed
system.cpu02.numWorkItemsStarted                    0                       # number of work items this cpu started
system.cpu02.num_busy_cycles             22133.986667                       # Number of busy cycles
system.cpu02.num_conditional_control_insts          410                       # number of instructions that are conditional controls
system.cpu02.num_fp_alu_accesses                   12                       # Number of float alu accesses
system.cpu02.num_fp_insts                          12                       # number of float instructions
system.cpu02.num_fp_register_reads                 12                       # number of times the floating registers were read
system.cpu02.num_fp_register_writes                 0                       # number of times the floating registers were written
system.cpu02.num_func_calls                       375                       # number of times a function call or return occured
system.cpu02.num_idle_cycles             1424327.013333                       # Number of idle cycles
system.cpu02.num_int_alu_accesses                4107                       # Number of integer alu accesses
system.cpu02.num_int_insts                       4107                       # number of integer instructions
system.cpu02.num_int_register_reads              4735                       # number of times the integer registers were read
system.cpu02.num_int_register_writes             3037                       # number of times the integer registers were written
system.cpu02.num_load_insts                      1016                       # Number of load instructions
system.cpu02.num_mem_refs                        1518                       # number of memory refs
system.cpu02.num_store_insts                      502                       # Number of store instructions
system.cpu02.num_vec_alu_accesses                   0                       # Number of vector alu accesses
system.cpu02.num_vec_insts                          0                       # number of vector instructions
system.cpu02.num_vec_register_reads                 0                       # number of times the vector registers were read
system.cpu02.num_vec_register_writes                0                       # number of times the vector registers were written
system.cpu02.op_class::No_OpClass                  10      0.24%      0.24% # Class of executed instruction
system.cpu02.op_class::IntAlu                    2652     63.40%     63.64% # Class of executed instruction
system.cpu02.op_class::IntMult                      1      0.02%     63.66% # Class of executed instruction
system.cpu02.op_class::IntDiv                       2      0.05%     63.71% # Class of executed instruction
system.cpu02.op_class::FloatAdd                     0      0.00%     63.71% # Class of executed instruction
system.cpu02.op_class::FloatCmp                     0      0.00%     63.71% # Class of executed instruction
system.cpu02.op_class::FloatCvt                     0      0.00%     63.71% # Class of executed instruction
system.cpu02.op_class::FloatMult                    0      0.00%     63.71% # Class of executed instruction
system.cpu02.op_class::FloatMultAcc                 0      0.00%     63.71% # Class of executed instruction
system.cpu02.op_class::FloatDiv                     0      0.00%     63.71% # Class of executed instruction
system.cpu02.op_class::FloatMisc                    0      0.00%     63.71% # Class of executed instruction
system.cpu02.op_class::FloatSqrt                    0      0.00%     63.71% # Class of executed instruction
system.cpu02.op_class::SimdAdd                      0      0.00%     63.71% # Class of executed instruction
system.cpu02.op_class::SimdAddAcc                   0      0.00%     63.71% # Class of executed instruction
system.cpu02.op_class::SimdAlu                      0      0.00%     63.71% # Class of executed instruction
system.cpu02.op_class::SimdCmp                      0      0.00%     63.71% # Class of executed instruction
system.cpu02.op_class::SimdCvt                      0      0.00%     63.71% # Class of executed instruction
system.cpu02.op_class::SimdMisc                     0      0.00%     63.71% # Class of executed instruction
system.cpu02.op_class::SimdMult                     0      0.00%     63.71% # Class of executed instruction
system.cpu02.op_class::SimdMultAcc                  0      0.00%     63.71% # Class of executed instruction
system.cpu02.op_class::SimdShift                    0      0.00%     63.71% # Class of executed instruction
system.cpu02.op_class::SimdShiftAcc                 0      0.00%     63.71% # Class of executed instruction
system.cpu02.op_class::SimdSqrt                     0      0.00%     63.71% # Class of executed instruction
system.cpu02.op_class::SimdFloatAdd                 0      0.00%     63.71% # Class of executed instruction
system.cpu02.op_class::SimdFloatAlu                 0      0.00%     63.71% # Class of executed instruction
system.cpu02.op_class::SimdFloatCmp                 0      0.00%     63.71% # Class of executed instruction
system.cpu02.op_class::SimdFloatCvt                 0      0.00%     63.71% # Class of executed instruction
system.cpu02.op_class::SimdFloatDiv                 0      0.00%     63.71% # Class of executed instruction
system.cpu02.op_class::SimdFloatMisc                0      0.00%     63.71% # Class of executed instruction
system.cpu02.op_class::SimdFloatMult                0      0.00%     63.71% # Class of executed instruction
system.cpu02.op_class::SimdFloatMultAcc             0      0.00%     63.71% # Class of executed instruction
system.cpu02.op_class::SimdFloatSqrt                0      0.00%     63.71% # Class of executed instruction
system.cpu02.op_class::SimdAes                      0      0.00%     63.71% # Class of executed instruction
system.cpu02.op_class::SimdAesMix                   0      0.00%     63.71% # Class of executed instruction
system.cpu02.op_class::SimdSha1Hash                 0      0.00%     63.71% # Class of executed instruction
system.cpu02.op_class::SimdSha1Hash2                0      0.00%     63.71% # Class of executed instruction
system.cpu02.op_class::SimdSha256Hash               0      0.00%     63.71% # Class of executed instruction
system.cpu02.op_class::SimdSha256Hash2              0      0.00%     63.71% # Class of executed instruction
system.cpu02.op_class::SimdShaSigma2                0      0.00%     63.71% # Class of executed instruction
system.cpu02.op_class::SimdShaSigma3                0      0.00%     63.71% # Class of executed instruction
system.cpu02.op_class::MemRead                   1020     24.38%     88.09% # Class of executed instruction
system.cpu02.op_class::MemWrite                   486     11.62%     99.71% # Class of executed instruction
system.cpu02.op_class::FloatMemRead                 0      0.00%     99.71% # Class of executed instruction
system.cpu02.op_class::FloatMemWrite               12      0.29%    100.00% # Class of executed instruction
system.cpu02.op_class::IprAccess                    0      0.00%    100.00% # Class of executed instruction
system.cpu02.op_class::InstPrefetch                 0      0.00%    100.00% # Class of executed instruction
system.cpu02.op_class::total                     4183                       # Class of executed instruction
system.cpu02.pwrStateClkGateDist::samples            1                       # Distribution of time spent in the clock gated state
system.cpu02.pwrStateClkGateDist::mean      136120500                       # Distribution of time spent in the clock gated state
system.cpu02.pwrStateClkGateDist::1000-5e+10            1    100.00%    100.00% # Distribution of time spent in the clock gated state
system.cpu02.pwrStateClkGateDist::min_value    136120500                       # Distribution of time spent in the clock gated state
system.cpu02.pwrStateClkGateDist::max_value    136120500                       # Distribution of time spent in the clock gated state
system.cpu02.pwrStateClkGateDist::total             1                       # Distribution of time spent in the clock gated state
system.cpu02.pwrStateResidencyTicks::ON     587110500                       # Cumulative time (in ticks) in various power states
system.cpu02.pwrStateResidencyTicks::CLK_GATED    136120500                       # Cumulative time (in ticks) in various power states
system.cpu03.Branches                             837                       # Number of branches fetched
system.cpu03.committedInsts                      4420                       # Number of instructions committed
system.cpu03.committedOps                        4426                       # Number of ops (including micro ops) committed
system.cpu03.dtb.accesses                           0                       # DTB accesses
system.cpu03.dtb.hits                               0                       # DTB hits
system.cpu03.dtb.misses                             0                       # DTB misses
system.cpu03.dtb.pwrStateResidencyTicks::UNDEFINED    723231000                       # Cumulative time (in ticks) in various power states
system.cpu03.dtb.read_accesses                      0                       # DTB read accesses
system.cpu03.dtb.read_hits                          0                       # DTB read hits
system.cpu03.dtb.read_misses                        0                       # DTB read misses
system.cpu03.dtb.write_accesses                     0                       # DTB write accesses
system.cpu03.dtb.write_hits                         0                       # DTB write hits
system.cpu03.dtb.write_misses                       0                       # DTB write misses
system.cpu03.idle_fraction                   0.984626                       # Percentage of idle cycles
system.cpu03.itb.accesses                           0                       # DTB accesses
system.cpu03.itb.hits                               0                       # DTB hits
system.cpu03.itb.misses                             0                       # DTB misses
system.cpu03.itb.pwrStateResidencyTicks::UNDEFINED    723231000                       # Cumulative time (in ticks) in various power states
system.cpu03.itb.read_accesses                      0                       # DTB read accesses
system.cpu03.itb.read_hits                          0                       # DTB read hits
system.cpu03.itb.read_misses                        0                       # DTB read misses
system.cpu03.itb.write_accesses                     0                       # DTB write accesses
system.cpu03.itb.write_hits                         0                       # DTB write hits
system.cpu03.itb.write_misses                       0                       # DTB write misses
system.cpu03.not_idle_fraction               0.015374                       # Percentage of non-idle cycles
system.cpu03.numCycles                        1446462                       # number of cpu cycles simulated
system.cpu03.numPwrStateTransitions                 2                       # Number of power state transitions
system.cpu03.numWorkItemsCompleted                  0                       # number of work items this cpu completed
system.cpu03.numWorkItemsStarted                    0                       # number of work items this cpu started
system.cpu03.num_busy_cycles             22238.001969                       # Number of busy cycles
system.cpu03.num_conditional_control_insts          425                       # number of instructions that are conditional controls
system.cpu03.num_fp_alu_accesses                   12                       # Number of float alu accesses
system.cpu03.num_fp_insts                          12                       # number of float instructions
system.cpu03.num_fp_register_reads                 12                       # number of times the floating registers were read
system.cpu03.num_fp_register_writes                 0                       # number of times the floating registers were written
system.cpu03.num_func_calls                       412                       # number of times a function call or return occured
system.cpu03.num_idle_cycles             1424223.998031                       # Number of idle cycles
system.cpu03.num_int_alu_accesses                4334                       # Number of integer alu accesses
system.cpu03.num_int_insts                       4334                       # number of integer instructions
system.cpu03.num_int_register_reads              5000                       # number of times the integer registers were read
system.cpu03.num_int_register_writes             3212                       # number of times the integer registers were written
system.cpu03.num_load_insts                      1077                       # Number of load instructions
system.cpu03.num_mem_refs                        1602                       # number of memory refs
system.cpu03.num_store_insts                      525                       # Number of store instructions
system.cpu03.num_vec_alu_accesses                   0                       # Number of vector alu accesses
system.cpu03.num_vec_insts                          0                       # number of vector instructions
system.cpu03.num_vec_register_reads                 0                       # number of times the vector registers were read
system.cpu03.num_vec_register_writes                0                       # number of times the vector registers were written
system.cpu03.op_class::No_OpClass                  10      0.23%      0.23% # Class of executed instruction
system.cpu03.op_class::IntAlu                    2813     63.53%     63.75% # Class of executed instruction
system.cpu03.op_class::IntMult                      1      0.02%     63.78% # Class of executed instruction
system.cpu03.op_class::IntDiv                       2      0.05%     63.82% # Class of executed instruction
system.cpu03.op_class::FloatAdd                     0      0.00%     63.82% # Class of executed instruction
system.cpu03.op_class::FloatCmp                     0      0.00%     63.82% # Class of executed instruction
system.cpu03.op_class::FloatCvt                     0      0.00%     63.82% # Class of executed instruction
system.cpu03.op_class::FloatMult                    0      0.00%     63.82% # Class of executed instruction
system.cpu03.op_class::FloatMultAcc                 0      0.00%     63.82% # Class of executed instruction
system.cpu03.op_class::FloatDiv                     0      0.00%     63.82% # Class of executed instruction
system.cpu03.op_class::FloatMisc                    0      0.00%     63.82% # Class of executed instruction
system.cpu03.op_class::FloatSqrt                    0      0.00%     63.82% # Class of executed instruction
system.cpu03.op_class::SimdAdd                      0      0.00%     63.82% # Class of executed instruction
system.cpu03.op_class::SimdAddAcc                   0      0.00%     63.82% # Class of executed instruction
system.cpu03.op_class::SimdAlu                      0      0.00%     63.82% # Class of executed instruction
system.cpu03.op_class::SimdCmp                      0      0.00%     63.82% # Class of executed instruction
system.cpu03.op_class::SimdCvt                      0      0.00%     63.82% # Class of executed instruction
system.cpu03.op_class::SimdMisc                     0      0.00%     63.82% # Class of executed instruction
system.cpu03.op_class::SimdMult                     0      0.00%     63.82% # Class of executed instruction
system.cpu03.op_class::SimdMultAcc                  0      0.00%     63.82% # Class of executed instruction
system.cpu03.op_class::SimdShift                    0      0.00%     63.82% # Class of executed instruction
system.cpu03.op_class::SimdShiftAcc                 0      0.00%     63.82% # Class of executed instruction
system.cpu03.op_class::SimdSqrt                     0      0.00%     63.82% # Class of executed instruction
system.cpu03.op_class::SimdFloatAdd                 0      0.00%     63.82% # Class of executed instruction
system.cpu03.op_class::SimdFloatAlu                 0      0.00%     63.82% # Class of executed instruction
system.cpu03.op_class::SimdFloatCmp                 0      0.00%     63.82% # Class of executed instruction
system.cpu03.op_class::SimdFloatCvt                 0      0.00%     63.82% # Class of executed instruction
system.cpu03.op_class::SimdFloatDiv                 0      0.00%     63.82% # Class of executed instruction
system.cpu03.op_class::SimdFloatMisc                0      0.00%     63.82% # Class of executed instruction
system.cpu03.op_class::SimdFloatMult                0      0.00%     63.82% # Class of executed instruction
system.cpu03.op_class::SimdFloatMultAcc             0      0.00%     63.82% # Class of executed instruction
system.cpu03.op_class::SimdFloatSqrt                0      0.00%     63.82% # Class of executed instruction
system.cpu03.op_class::SimdAes                      0      0.00%     63.82% # Class of executed instruction
system.cpu03.op_class::SimdAesMix                   0      0.00%     63.82% # Class of executed instruction
system.cpu03.op_class::SimdSha1Hash                 0      0.00%     63.82% # Class of executed instruction
system.cpu03.op_class::SimdSha1Hash2                0      0.00%     63.82% # Class of executed instruction
system.cpu03.op_class::SimdSha256Hash               0      0.00%     63.82% # Class of executed instruction
system.cpu03.op_class::SimdSha256Hash2              0      0.00%     63.82% # Class of executed instruction
system.cpu03.op_class::SimdShaSigma2                0      0.00%     63.82% # Class of executed instruction
system.cpu03.op_class::SimdShaSigma3                0      0.00%     63.82% # Class of executed instruction
system.cpu03.op_class::MemRead                   1081     24.41%     88.23% # Class of executed instruction
system.cpu03.op_class::MemWrite                   509     11.50%     99.73% # Class of executed instruction
system.cpu03.op_class::FloatMemRead                 0      0.00%     99.73% # Class of executed instruction
system.cpu03.op_class::FloatMemWrite               12      0.27%    100.00% # Class of executed instruction
system.cpu03.op_class::IprAccess                    0      0.00%    100.00% # Class of executed instruction
system.cpu03.op_class::InstPrefetch                 0      0.00%    100.00% # Class of executed instruction
system.cpu03.op_class::total                     4428                       # Class of executed instruction
system.cpu03.pwrStateClkGateDist::samples            1                       # Distribution of time spent in the clock gated state
system.cpu03.pwrStateClkGateDist::mean      126244000                       # Distribution of time spent in the clock gated state
system.cpu03.pwrStateClkGateDist::1000-5e+10            1    100.00%    100.00% # Distribution of time spent in the clock gated state
system.cpu03.pwrStateClkGateDist::min_value    126244000                       # Distribution of time spent in the clock gated state
system.cpu03.pwrStateClkGateDist::max_value    126244000                       # Distribution of time spent in the clock gated state
system.cpu03.pwrStateClkGateDist::total             1                       # Distribution of time spent in the clock gated state
system.cpu03.pwrStateResidencyTicks::ON     596987000                       # Cumulative time (in ticks) in various power states
system.cpu03.pwrStateResidencyTicks::CLK_GATED    126244000                       # Cumulative time (in ticks) in various power states
system.cpu04.Branches                             821                       # Number of branches fetched
system.cpu04.committedInsts                      4334                       # Number of instructions committed
system.cpu04.committedOps                        4340                       # Number of ops (including micro ops) committed
system.cpu04.dtb.accesses                           0                       # DTB accesses
system.cpu04.dtb.hits                               0                       # DTB hits
system.cpu04.dtb.misses                             0                       # DTB misses
system.cpu04.dtb.pwrStateResidencyTicks::UNDEFINED    723231000                       # Cumulative time (in ticks) in various power states
system.cpu04.dtb.read_accesses                      0                       # DTB read accesses
system.cpu04.dtb.read_hits                          0                       # DTB read hits
system.cpu04.dtb.read_misses                        0                       # DTB read misses
system.cpu04.dtb.write_accesses                     0                       # DTB write accesses
system.cpu04.dtb.write_hits                         0                       # DTB write hits
system.cpu04.dtb.write_misses                       0                       # DTB write misses
system.cpu04.idle_fraction                   0.984510                       # Percentage of idle cycles
system.cpu04.itb.accesses                           0                       # DTB accesses
system.cpu04.itb.hits                               0                       # DTB hits
system.cpu04.itb.misses                             0                       # DTB misses
system.cpu04.itb.pwrStateResidencyTicks::UNDEFINED    723231000                       # Cumulative time (in ticks) in various power states
system.cpu04.itb.read_accesses                      0                       # DTB read accesses
system.cpu04.itb.read_hits                          0                       # DTB read hits
system.cpu04.itb.read_misses                        0                       # DTB read misses
system.cpu04.itb.write_accesses                     0                       # DTB write accesses
system.cpu04.itb.write_hits                         0                       # DTB write hits
system.cpu04.itb.write_misses                       0                       # DTB write misses
system.cpu04.not_idle_fraction               0.015490                       # Percentage of non-idle cycles
system.cpu04.numCycles                        1446461                       # number of cpu cycles simulated
system.cpu04.numPwrStateTransitions                 2                       # Number of power state transitions
system.cpu04.numWorkItemsCompleted                  0                       # number of work items this cpu completed
system.cpu04.numWorkItemsStarted                    0                       # number of work items this cpu started
system.cpu04.num_busy_cycles             22404.986480                       # Number of busy cycles
system.cpu04.num_conditional_control_insts          415                       # number of instructions that are conditional controls
system.cpu04.num_fp_alu_accesses                   12                       # Number of float alu accesses
system.cpu04.num_fp_insts                          12                       # number of float instructions
system.cpu04.num_fp_register_reads                 12                       # number of times the floating registers were read
system.cpu04.num_fp_register_writes                 0                       # number of times the floating registers were written
system.cpu04.num_func_calls                       406                       # number of times a function call or return occured
system.cpu04.num_idle_cycles             1424056.013520                       # Number of idle cycles
system.cpu04.num_int_alu_accesses                4248                       # Number of integer alu accesses
system.cpu04.num_int_insts                       4248                       # number of integer instructions
system.cpu04.num_int_register_reads              4901                       # number of times the integer registers were read
system.cpu04.num_int_register_writes             3148                       # number of times the integer registers were written
system.cpu04.num_load_insts                      1056                       # Number of load instructions
system.cpu04.num_mem_refs                        1572                       # number of memory refs
system.cpu04.num_store_insts                      516                       # Number of store instructions
system.cpu04.num_vec_alu_accesses                   0                       # Number of vector alu accesses
system.cpu04.num_vec_insts                          0                       # number of vector instructions
system.cpu04.num_vec_register_reads                 0                       # number of times the vector registers were read
system.cpu04.num_vec_register_writes                0                       # number of times the vector registers were written
system.cpu04.op_class::No_OpClass                  10      0.23%      0.23% # Class of executed instruction
system.cpu04.op_class::IntAlu                    2757     63.50%     63.73% # Class of executed instruction
system.cpu04.op_class::IntMult                      1      0.02%     63.75% # Class of executed instruction
system.cpu04.op_class::IntDiv                       2      0.05%     63.80% # Class of executed instruction
system.cpu04.op_class::FloatAdd                     0      0.00%     63.80% # Class of executed instruction
system.cpu04.op_class::FloatCmp                     0      0.00%     63.80% # Class of executed instruction
system.cpu04.op_class::FloatCvt                     0      0.00%     63.80% # Class of executed instruction
system.cpu04.op_class::FloatMult                    0      0.00%     63.80% # Class of executed instruction
system.cpu04.op_class::FloatMultAcc                 0      0.00%     63.80% # Class of executed instruction
system.cpu04.op_class::FloatDiv                     0      0.00%     63.80% # Class of executed instruction
system.cpu04.op_class::FloatMisc                    0      0.00%     63.80% # Class of executed instruction
system.cpu04.op_class::FloatSqrt                    0      0.00%     63.80% # Class of executed instruction
system.cpu04.op_class::SimdAdd                      0      0.00%     63.80% # Class of executed instruction
system.cpu04.op_class::SimdAddAcc                   0      0.00%     63.80% # Class of executed instruction
system.cpu04.op_class::SimdAlu                      0      0.00%     63.80% # Class of executed instruction
system.cpu04.op_class::SimdCmp                      0      0.00%     63.80% # Class of executed instruction
system.cpu04.op_class::SimdCvt                      0      0.00%     63.80% # Class of executed instruction
system.cpu04.op_class::SimdMisc                     0      0.00%     63.80% # Class of executed instruction
system.cpu04.op_class::SimdMult                     0      0.00%     63.80% # Class of executed instruction
system.cpu04.op_class::SimdMultAcc                  0      0.00%     63.80% # Class of executed instruction
system.cpu04.op_class::SimdShift                    0      0.00%     63.80% # Class of executed instruction
system.cpu04.op_class::SimdShiftAcc                 0      0.00%     63.80% # Class of executed instruction
system.cpu04.op_class::SimdSqrt                     0      0.00%     63.80% # Class of executed instruction
system.cpu04.op_class::SimdFloatAdd                 0      0.00%     63.80% # Class of executed instruction
system.cpu04.op_class::SimdFloatAlu                 0      0.00%     63.80% # Class of executed instruction
system.cpu04.op_class::SimdFloatCmp                 0      0.00%     63.80% # Class of executed instruction
system.cpu04.op_class::SimdFloatCvt                 0      0.00%     63.80% # Class of executed instruction
system.cpu04.op_class::SimdFloatDiv                 0      0.00%     63.80% # Class of executed instruction
system.cpu04.op_class::SimdFloatMisc                0      0.00%     63.80% # Class of executed instruction
system.cpu04.op_class::SimdFloatMult                0      0.00%     63.80% # Class of executed instruction
system.cpu04.op_class::SimdFloatMultAcc             0      0.00%     63.80% # Class of executed instruction
system.cpu04.op_class::SimdFloatSqrt                0      0.00%     63.80% # Class of executed instruction
system.cpu04.op_class::SimdAes                      0      0.00%     63.80% # Class of executed instruction
system.cpu04.op_class::SimdAesMix                   0      0.00%     63.80% # Class of executed instruction
system.cpu04.op_class::SimdSha1Hash                 0      0.00%     63.80% # Class of executed instruction
system.cpu04.op_class::SimdSha1Hash2                0      0.00%     63.80% # Class of executed instruction
system.cpu04.op_class::SimdSha256Hash               0      0.00%     63.80% # Class of executed instruction
system.cpu04.op_class::SimdSha256Hash2              0      0.00%     63.80% # Class of executed instruction
system.cpu04.op_class::SimdShaSigma2                0      0.00%     63.80% # Class of executed instruction
system.cpu04.op_class::SimdShaSigma3                0      0.00%     63.80% # Class of executed instruction
system.cpu04.op_class::MemRead                   1060     24.41%     88.21% # Class of executed instruction
system.cpu04.op_class::MemWrite                   500     11.52%     99.72% # Class of executed instruction
system.cpu04.op_class::FloatMemRead                 0      0.00%     99.72% # Class of executed instruction
system.cpu04.op_class::FloatMemWrite               12      0.28%    100.00% # Class of executed instruction
system.cpu04.op_class::IprAccess                    0      0.00%    100.00% # Class of executed instruction
system.cpu04.op_class::InstPrefetch                 0      0.00%    100.00% # Class of executed instruction
system.cpu04.op_class::total                     4342                       # Class of executed instruction
system.cpu04.pwrStateClkGateDist::samples            1                       # Distribution of time spent in the clock gated state
system.cpu04.pwrStateClkGateDist::mean      114466000                       # Distribution of time spent in the clock gated state
system.cpu04.pwrStateClkGateDist::1000-5e+10            1    100.00%    100.00% # Distribution of time spent in the clock gated state
system.cpu04.pwrStateClkGateDist::min_value    114466000                       # Distribution of time spent in the clock gated state
system.cpu04.pwrStateClkGateDist::max_value    114466000                       # Distribution of time spent in the clock gated state
system.cpu04.pwrStateClkGateDist::total             1                       # Distribution of time spent in the clock gated state
system.cpu04.pwrStateResidencyTicks::ON     608765000                       # Cumulative time (in ticks) in various power states
system.cpu04.pwrStateResidencyTicks::CLK_GATED    114466000                       # Cumulative time (in ticks) in various power states
system.cpu05.Branches                             794                       # Number of branches fetched
system.cpu05.committedInsts                      4194                       # Number of instructions committed
system.cpu05.committedOps                        4200                       # Number of ops (including micro ops) committed
system.cpu05.dtb.accesses                           0                       # DTB accesses
system.cpu05.dtb.hits                               0                       # DTB hits
system.cpu05.dtb.misses                             0                       # DTB misses
system.cpu05.dtb.pwrStateResidencyTicks::UNDEFINED    723231000                       # Cumulative time (in ticks) in various power states
system.cpu05.dtb.read_accesses                      0                       # DTB read accesses
system.cpu05.dtb.read_hits                          0                       # DTB read hits
system.cpu05.dtb.read_misses                        0                       # DTB read misses
system.cpu05.dtb.write_accesses                     0                       # DTB write accesses
system.cpu05.dtb.write_hits                         0                       # DTB write hits
system.cpu05.dtb.write_misses                       0                       # DTB write misses
system.cpu05.idle_fraction                   0.984925                       # Percentage of idle cycles
system.cpu05.itb.accesses                           0                       # DTB accesses
system.cpu05.itb.hits                               0                       # DTB hits
system.cpu05.itb.misses                             0                       # DTB misses
system.cpu05.itb.pwrStateResidencyTicks::UNDEFINED    723231000                       # Cumulative time (in ticks) in various power states
system.cpu05.itb.read_accesses                      0                       # DTB read accesses
system.cpu05.itb.read_hits                          0                       # DTB read hits
system.cpu05.itb.read_misses                        0                       # DTB read misses
system.cpu05.itb.write_accesses                     0                       # DTB write accesses
system.cpu05.itb.write_hits                         0                       # DTB write hits
system.cpu05.itb.write_misses                       0                       # DTB write misses
system.cpu05.not_idle_fraction               0.015075                       # Percentage of non-idle cycles
system.cpu05.numCycles                        1446461                       # number of cpu cycles simulated
system.cpu05.numPwrStateTransitions                 2                       # Number of power state transitions
system.cpu05.numWorkItemsCompleted                  0                       # number of work items this cpu completed
system.cpu05.numWorkItemsStarted                    0                       # number of work items this cpu started
system.cpu05.num_busy_cycles             21804.986895                       # Number of busy cycles
system.cpu05.num_conditional_control_insts          405                       # number of instructions that are conditional controls
system.cpu05.num_fp_alu_accesses                   12                       # Number of float alu accesses
system.cpu05.num_fp_insts                          12                       # number of float instructions
system.cpu05.num_fp_register_reads                 12                       # number of times the floating registers were read
system.cpu05.num_fp_register_writes                 0                       # number of times the floating registers were written
system.cpu05.num_func_calls                       389                       # number of times a function call or return occured
system.cpu05.num_idle_cycles             1424656.013105                       # Number of idle cycles
system.cpu05.num_int_alu_accesses                4114                       # Number of integer alu accesses
system.cpu05.num_int_insts                       4114                       # number of integer instructions
system.cpu05.num_int_register_reads              4748                       # number of times the integer registers were read
system.cpu05.num_int_register_writes             3045                       # number of times the integer registers were written
system.cpu05.num_load_insts                      1022                       # Number of load instructions
system.cpu05.num_mem_refs                        1524                       # number of memory refs
system.cpu05.num_store_insts                      502                       # Number of store instructions
system.cpu05.num_vec_alu_accesses                   0                       # Number of vector alu accesses
system.cpu05.num_vec_insts                          0                       # number of vector instructions
system.cpu05.num_vec_register_reads                 0                       # number of times the vector registers were read
system.cpu05.num_vec_register_writes                0                       # number of times the vector registers were written
system.cpu05.op_class::No_OpClass                  10      0.24%      0.24% # Class of executed instruction
system.cpu05.op_class::IntAlu                    2665     63.42%     63.66% # Class of executed instruction
system.cpu05.op_class::IntMult                      1      0.02%     63.68% # Class of executed instruction
system.cpu05.op_class::IntDiv                       2      0.05%     63.73% # Class of executed instruction
system.cpu05.op_class::FloatAdd                     0      0.00%     63.73% # Class of executed instruction
system.cpu05.op_class::FloatCmp                     0      0.00%     63.73% # Class of executed instruction
system.cpu05.op_class::FloatCvt                     0      0.00%     63.73% # Class of executed instruction
system.cpu05.op_class::FloatMult                    0      0.00%     63.73% # Class of executed instruction
system.cpu05.op_class::FloatMultAcc                 0      0.00%     63.73% # Class of executed instruction
system.cpu05.op_class::FloatDiv                     0      0.00%     63.73% # Class of executed instruction
system.cpu05.op_class::FloatMisc                    0      0.00%     63.73% # Class of executed instruction
system.cpu05.op_class::FloatSqrt                    0      0.00%     63.73% # Class of executed instruction
system.cpu05.op_class::SimdAdd                      0      0.00%     63.73% # Class of executed instruction
system.cpu05.op_class::SimdAddAcc                   0      0.00%     63.73% # Class of executed instruction
system.cpu05.op_class::SimdAlu                      0      0.00%     63.73% # Class of executed instruction
system.cpu05.op_class::SimdCmp                      0      0.00%     63.73% # Class of executed instruction
system.cpu05.op_class::SimdCvt                      0      0.00%     63.73% # Class of executed instruction
system.cpu05.op_class::SimdMisc                     0      0.00%     63.73% # Class of executed instruction
system.cpu05.op_class::SimdMult                     0      0.00%     63.73% # Class of executed instruction
system.cpu05.op_class::SimdMultAcc                  0      0.00%     63.73% # Class of executed instruction
system.cpu05.op_class::SimdShift                    0      0.00%     63.73% # Class of executed instruction
system.cpu05.op_class::SimdShiftAcc                 0      0.00%     63.73% # Class of executed instruction
system.cpu05.op_class::SimdSqrt                     0      0.00%     63.73% # Class of executed instruction
system.cpu05.op_class::SimdFloatAdd                 0      0.00%     63.73% # Class of executed instruction
system.cpu05.op_class::SimdFloatAlu                 0      0.00%     63.73% # Class of executed instruction
system.cpu05.op_class::SimdFloatCmp                 0      0.00%     63.73% # Class of executed instruction
system.cpu05.op_class::SimdFloatCvt                 0      0.00%     63.73% # Class of executed instruction
system.cpu05.op_class::SimdFloatDiv                 0      0.00%     63.73% # Class of executed instruction
system.cpu05.op_class::SimdFloatMisc                0      0.00%     63.73% # Class of executed instruction
system.cpu05.op_class::SimdFloatMult                0      0.00%     63.73% # Class of executed instruction
system.cpu05.op_class::SimdFloatMultAcc             0      0.00%     63.73% # Class of executed instruction
system.cpu05.op_class::SimdFloatSqrt                0      0.00%     63.73% # Class of executed instruction
system.cpu05.op_class::SimdAes                      0      0.00%     63.73% # Class of executed instruction
system.cpu05.op_class::SimdAesMix                   0      0.00%     63.73% # Class of executed instruction
system.cpu05.op_class::SimdSha1Hash                 0      0.00%     63.73% # Class of executed instruction
system.cpu05.op_class::SimdSha1Hash2                0      0.00%     63.73% # Class of executed instruction
system.cpu05.op_class::SimdSha256Hash               0      0.00%     63.73% # Class of executed instruction
system.cpu05.op_class::SimdSha256Hash2              0      0.00%     63.73% # Class of executed instruction
system.cpu05.op_class::SimdShaSigma2                0      0.00%     63.73% # Class of executed instruction
system.cpu05.op_class::SimdShaSigma3                0      0.00%     63.73% # Class of executed instruction
system.cpu05.op_class::MemRead                   1026     24.42%     88.15% # Class of executed instruction
system.cpu05.op_class::MemWrite                   486     11.57%     99.71% # Class of executed instruction
system.cpu05.op_class::FloatMemRead                 0      0.00%     99.71% # Class of executed instruction
system.cpu05.op_class::FloatMemWrite               12      0.29%    100.00% # Class of executed instruction
system.cpu05.op_class::IprAccess                    0      0.00%    100.00% # Class of executed instruction
system.cpu05.op_class::InstPrefetch                 0      0.00%    100.00% # Class of executed instruction
system.cpu05.op_class::total                     4202                       # Class of executed instruction
system.cpu05.pwrStateClkGateDist::samples            1                       # Distribution of time spent in the clock gated state
system.cpu05.pwrStateClkGateDist::mean      104908500                       # Distribution of time spent in the clock gated state
system.cpu05.pwrStateClkGateDist::1000-5e+10            1    100.00%    100.00% # Distribution of time spent in the clock gated state
system.cpu05.pwrStateClkGateDist::min_value    104908500                       # Distribution of time spent in the clock gated state
system.cpu05.pwrStateClkGateDist::max_value    104908500                       # Distribution of time spent in the clock gated state
system.cpu05.pwrStateClkGateDist::total             1                       # Distribution of time spent in the clock gated state
system.cpu05.pwrStateResidencyTicks::ON     618322500                       # Cumulative time (in ticks) in various power states
system.cpu05.pwrStateResidencyTicks::CLK_GATED    104908500                       # Cumulative time (in ticks) in various power states
system.cpu06.Branches                             829                       # Number of branches fetched
system.cpu06.committedInsts                      4381                       # Number of instructions committed
system.cpu06.committedOps                        4387                       # Number of ops (including micro ops) committed
system.cpu06.dtb.accesses                           0                       # DTB accesses
system.cpu06.dtb.hits                               0                       # DTB hits
system.cpu06.dtb.misses                             0                       # DTB misses
system.cpu06.dtb.pwrStateResidencyTicks::UNDEFINED    723231000                       # Cumulative time (in ticks) in various power states
system.cpu06.dtb.read_accesses                      0                       # DTB read accesses
system.cpu06.dtb.read_hits                          0                       # DTB read hits
system.cpu06.dtb.read_misses                        0                       # DTB read misses
system.cpu06.dtb.write_accesses                     0                       # DTB write accesses
system.cpu06.dtb.write_hits                         0                       # DTB write hits
system.cpu06.dtb.write_misses                       0                       # DTB write misses
system.cpu06.idle_fraction                   0.985138                       # Percentage of idle cycles
system.cpu06.itb.accesses                           0                       # DTB accesses
system.cpu06.itb.hits                               0                       # DTB hits
system.cpu06.itb.misses                             0                       # DTB misses
system.cpu06.itb.pwrStateResidencyTicks::UNDEFINED    723231000                       # Cumulative time (in ticks) in various power states
system.cpu06.itb.read_accesses                      0                       # DTB read accesses
system.cpu06.itb.read_hits                          0                       # DTB read hits
system.cpu06.itb.read_misses                        0                       # DTB read misses
system.cpu06.itb.write_accesses                     0                       # DTB write accesses
system.cpu06.itb.write_hits                         0                       # DTB write hits
system.cpu06.itb.write_misses                       0                       # DTB write misses
system.cpu06.not_idle_fraction               0.014862                       # Percentage of non-idle cycles
system.cpu06.numCycles                        1446461                       # number of cpu cycles simulated
system.cpu06.numPwrStateTransitions                 2                       # Number of power state transitions
system.cpu06.numWorkItemsCompleted                  0                       # number of work items this cpu completed
system.cpu06.numWorkItemsStarted                    0                       # number of work items this cpu started
system.cpu06.num_busy_cycles             21496.987108                       # Number of busy cycles
system.cpu06.num_conditional_control_insts          420                       # number of instructions that are conditional controls
system.cpu06.num_fp_alu_accesses                   12                       # Number of float alu accesses
system.cpu06.num_fp_insts                          12                       # number of float instructions
system.cpu06.num_fp_register_reads                 12                       # number of times the floating registers were read
system.cpu06.num_fp_register_writes                 0                       # number of times the floating registers were written
system.cpu06.num_func_calls                       409                       # number of times a function call or return occured
system.cpu06.num_idle_cycles             1424964.012892                       # Number of idle cycles
system.cpu06.num_int_alu_accesses                4295                       # Number of integer alu accesses
system.cpu06.num_int_insts                       4295                       # number of integer instructions
system.cpu06.num_int_register_reads              4956                       # number of times the integer registers were read
system.cpu06.num_int_register_writes             3183                       # number of times the integer registers were written
system.cpu06.num_load_insts                      1069                       # Number of load instructions
system.cpu06.num_mem_refs                        1591                       # number of memory refs
system.cpu06.num_store_insts                      522                       # Number of store instructions
system.cpu06.num_vec_alu_accesses                   0                       # Number of vector alu accesses
system.cpu06.num_vec_insts                          0                       # number of vector instructions
system.cpu06.num_vec_register_reads                 0                       # number of times the vector registers were read
system.cpu06.num_vec_register_writes                0                       # number of times the vector registers were written
system.cpu06.op_class::No_OpClass                  10      0.23%      0.23% # Class of executed instruction
system.cpu06.op_class::IntAlu                    2785     63.45%     63.68% # Class of executed instruction
system.cpu06.op_class::IntMult                      1      0.02%     63.70% # Class of executed instruction
system.cpu06.op_class::IntDiv                       2      0.05%     63.75% # Class of executed instruction
system.cpu06.op_class::FloatAdd                     0      0.00%     63.75% # Class of executed instruction
system.cpu06.op_class::FloatCmp                     0      0.00%     63.75% # Class of executed instruction
system.cpu06.op_class::FloatCvt                     0      0.00%     63.75% # Class of executed instruction
system.cpu06.op_class::FloatMult                    0      0.00%     63.75% # Class of executed instruction
system.cpu06.op_class::FloatMultAcc                 0      0.00%     63.75% # Class of executed instruction
system.cpu06.op_class::FloatDiv                     0      0.00%     63.75% # Class of executed instruction
system.cpu06.op_class::FloatMisc                    0      0.00%     63.75% # Class of executed instruction
system.cpu06.op_class::FloatSqrt                    0      0.00%     63.75% # Class of executed instruction
system.cpu06.op_class::SimdAdd                      0      0.00%     63.75% # Class of executed instruction
system.cpu06.op_class::SimdAddAcc                   0      0.00%     63.75% # Class of executed instruction
system.cpu06.op_class::SimdAlu                      0      0.00%     63.75% # Class of executed instruction
system.cpu06.op_class::SimdCmp                      0      0.00%     63.75% # Class of executed instruction
system.cpu06.op_class::SimdCvt                      0      0.00%     63.75% # Class of executed instruction
system.cpu06.op_class::SimdMisc                     0      0.00%     63.75% # Class of executed instruction
system.cpu06.op_class::SimdMult                     0      0.00%     63.75% # Class of executed instruction
system.cpu06.op_class::SimdMultAcc                  0      0.00%     63.75% # Class of executed instruction
system.cpu06.op_class::SimdShift                    0      0.00%     63.75% # Class of executed instruction
system.cpu06.op_class::SimdShiftAcc                 0      0.00%     63.75% # Class of executed instruction
system.cpu06.op_class::SimdSqrt                     0      0.00%     63.75% # Class of executed instruction
system.cpu06.op_class::SimdFloatAdd                 0      0.00%     63.75% # Class of executed instruction
system.cpu06.op_class::SimdFloatAlu                 0      0.00%     63.75% # Class of executed instruction
system.cpu06.op_class::SimdFloatCmp                 0      0.00%     63.75% # Class of executed instruction
system.cpu06.op_class::SimdFloatCvt                 0      0.00%     63.75% # Class of executed instruction
system.cpu06.op_class::SimdFloatDiv                 0      0.00%     63.75% # Class of executed instruction
system.cpu06.op_class::SimdFloatMisc                0      0.00%     63.75% # Class of executed instruction
system.cpu06.op_class::SimdFloatMult                0      0.00%     63.75% # Class of executed instruction
system.cpu06.op_class::SimdFloatMultAcc             0      0.00%     63.75% # Class of executed instruction
system.cpu06.op_class::SimdFloatSqrt                0      0.00%     63.75% # Class of executed instruction
system.cpu06.op_class::SimdAes                      0      0.00%     63.75% # Class of executed instruction
system.cpu06.op_class::SimdAesMix                   0      0.00%     63.75% # Class of executed instruction
system.cpu06.op_class::SimdSha1Hash                 0      0.00%     63.75% # Class of executed instruction
system.cpu06.op_class::SimdSha1Hash2                0      0.00%     63.75% # Class of executed instruction
system.cpu06.op_class::SimdSha256Hash               0      0.00%     63.75% # Class of executed instruction
system.cpu06.op_class::SimdSha256Hash2              0      0.00%     63.75% # Class of executed instruction
system.cpu06.op_class::SimdShaSigma2                0      0.00%     63.75% # Class of executed instruction
system.cpu06.op_class::SimdShaSigma3                0      0.00%     63.75% # Class of executed instruction
system.cpu06.op_class::MemRead                   1073     24.45%     88.20% # Class of executed instruction
system.cpu06.op_class::MemWrite                   506     11.53%     99.73% # Class of executed instruction
system.cpu06.op_class::FloatMemRead                 0      0.00%     99.73% # Class of executed instruction
system.cpu06.op_class::FloatMemWrite               12      0.27%    100.00% # Class of executed instruction
system.cpu06.op_class::IprAccess                    0      0.00%    100.00% # Class of executed instruction
system.cpu06.op_class::InstPrefetch                 0      0.00%    100.00% # Class of executed instruction
system.cpu06.op_class::total                     4389                       # Class of executed instruction
system.cpu06.pwrStateClkGateDist::samples            1                       # Distribution of time spent in the clock gated state
system.cpu06.pwrStateClkGateDist::mean       95034500                       # Distribution of time spent in the clock gated state
system.cpu06.pwrStateClkGateDist::1000-5e+10            1    100.00%    100.00% # Distribution of time spent in the clock gated state
system.cpu06.pwrStateClkGateDist::min_value     95034500                       # Distribution of time spent in the clock gated state
[...]
system.ruby.network.int_links39.credit_link.pwrStateResidencyTicks::UNDEFINED    723231000                       # Cumulative time (in ticks) in various power states
system.ruby.network.int_links39.network_link.pwrStateResidencyTicks::UNDEFINED    723231000                       # Cumulative time (in ticks) in various power states
system.ruby.network.int_links40.credit_link.pwrStateResidencyTicks::UNDEFINED    723231000                       # Cumulative time (in ticks) in various power states
system.ruby.network.int_links40.network_link.pwrStateResidencyTicks::UNDEFINED    723231000                       # Cumulative time (in ticks) in various power states
system.ruby.network.int_links41.credit_link.pwrStateResidencyTicks::UNDEFINED    723231000                       # Cumulative time (in ticks) in various power states
system.ruby.network.int_links41.network_link.pwrStateResidencyTicks::UNDEFINED    723231000                       # Cumulative time (in ticks) in various power states
system.ruby.network.int_links42.credit_link.pwrStateResidencyTicks::UNDEFINED    723231000                       # Cumulative time (in ticks) in various power states
system.ruby.network.int_links42.network_link.pwrStateResidencyTicks::UNDEFINED    723231000                       # Cumulative time (in ticks) in various power states
system.ruby.network.int_links43.credit_link.pwrStateResidencyTicks::UNDEFINED    723231000                       # Cumulative time (in ticks) in various power states
system.ruby.network.int_links43.network_link.pwrStateResidencyTicks::UNDEFINED    723231000                       # Cumulative time (in ticks) in various power states
system.ruby.network.int_links44.credit_link.pwrStateResidencyTicks::UNDEFINED    723231000                       # Cumulative time (in ticks) in various power states
system.ruby.network.int_links44.network_link.pwrStateResidencyTicks::UNDEFINED    723231000                       # Cumulative time (in ticks) in various power states
system.ruby.network.int_links45.credit_link.pwrStateResidencyTicks::UNDEFINED    723231000                       # Cumulative time (in ticks) in various power states
system.ruby.network.int_links45.network_link.pwrStateResidencyTicks::UNDEFINED    723231000                       # Cumulative time (in ticks) in various power states
system.ruby.network.int_links46.credit_link.pwrStateResidencyTicks::UNDEFINED    723231000                       # Cumulative time (in ticks) in various power states
system.ruby.network.int_links46.network_link.pwrStateResidencyTicks::UNDEFINED    723231000                       # Cumulative time (in ticks) in various power states
system.ruby.network.int_links47.credit_link.pwrStateResidencyTicks::UNDEFINED    723231000                       # Cumulative time (in ticks) in various power states
system.ruby.network.int_links47.network_link.pwrStateResidencyTicks::UNDEFINED    723231000                       # Cumulative time (in ticks) in various power states
system.ruby.network.netifs00.pwrStateResidencyTicks::UNDEFINED    723231000                       # Cumulative time (in ticks) in various power states
system.ruby.network.netifs01.pwrStateResidencyTicks::UNDEFINED    723231000                       # Cumulative time (in ticks) in various power states
system.ruby.network.netifs02.pwrStateResidencyTicks::UNDEFINED    723231000                       # Cumulative time (in ticks) in various power states
system.ruby.network.netifs03.pwrStateResidencyTicks::UNDEFINED    723231000                       # Cumulative time (in ticks) in various power states
system.ruby.network.netifs04.pwrStateResidencyTicks::UNDEFINED    723231000                       # Cumulative time (in ticks) in various power states
system.ruby.network.netifs05.pwrStateResidencyTicks::UNDEFINED    723231000                       # Cumulative time (in ticks) in various power states
system.ruby.network.netifs06.pwrStateResidencyTicks::UNDEFINED    723231000                       # Cumulative time (in ticks) in various power states
system.ruby.network.netifs07.pwrStateResidencyTicks::UNDEFINED    723231000                       # Cumulative time (in ticks) in various power states
system.ruby.network.netifs08.pwrStateResidencyTicks::UNDEFINED    723231000                       # Cumulative time (in ticks) in various power states
system.ruby.network.netifs09.pwrStateResidencyTicks::UNDEFINED    723231000                       # Cumulative time (in ticks) in various power states
system.ruby.network.netifs10.pwrStateResidencyTicks::UNDEFINED    723231000                       # Cumulative time (in ticks) in various power states
system.ruby.network.netifs11.pwrStateResidencyTicks::UNDEFINED    723231000                       # Cumulative time (in ticks) in various power states
system.ruby.network.netifs12.pwrStateResidencyTicks::UNDEFINED    723231000                       # Cumulative time (in ticks) in various power states
system.ruby.network.netifs13.pwrStateResidencyTicks::UNDEFINED    723231000                       # Cumulative time (in ticks) in various power states
system.ruby.network.netifs14.pwrStateResidencyTicks::UNDEFINED    723231000                       # Cumulative time (in ticks) in various power states
system.ruby.network.netifs15.pwrStateResidencyTicks::UNDEFINED    723231000                       # Cumulative time (in ticks) in various power states
system.ruby.network.netifs16.pwrStateResidencyTicks::UNDEFINED    723231000                       # Cumulative time (in ticks) in various power states
system.ruby.network.netifs17.pwrStateResidencyTicks::UNDEFINED    723231000                       # Cumulative time (in ticks) in various power states
system.ruby.network.netifs18.pwrStateResidencyTicks::UNDEFINED    723231000                       # Cumulative time (in ticks) in various power states
system.ruby.network.netifs19.pwrStateResidencyTicks::UNDEFINED    723231000                       # Cumulative time (in ticks) in various power states
system.ruby.network.netifs20.pwrStateResidencyTicks::UNDEFINED    723231000                       # Cumulative time (in ticks) in various power states
system.ruby.network.netifs21.pwrStateResidencyTicks::UNDEFINED    723231000                       # Cumulative time (in ticks) in various power states
system.ruby.network.netifs22.pwrStateResidencyTicks::UNDEFINED    723231000                       # Cumulative time (in ticks) in various power states
system.ruby.network.netifs23.pwrStateResidencyTicks::UNDEFINED    723231000                       # Cumulative time (in ticks) in various power states
system.ruby.network.netifs24.pwrStateResidencyTicks::UNDEFINED    723231000                       # Cumulative time (in ticks) in various power states
system.ruby.network.netifs25.pwrStateResidencyTicks::UNDEFINED    723231000                       # Cumulative time (in ticks) in various power states
system.ruby.network.netifs26.pwrStateResidencyTicks::UNDEFINED    723231000                       # Cumulative time (in ticks) in various power states
system.ruby.network.netifs27.pwrStateResidencyTicks::UNDEFINED    723231000                       # Cumulative time (in ticks) in various power states
system.ruby.network.netifs28.pwrStateResidencyTicks::UNDEFINED    723231000                       # Cumulative time (in ticks) in various power states
system.ruby.network.netifs29.pwrStateResidencyTicks::UNDEFINED    723231000                       # Cumulative time (in ticks) in various power states
system.ruby.network.netifs30.pwrStateResidencyTicks::UNDEFINED    723231000                       # Cumulative time (in ticks) in various power states
system.ruby.network.netifs31.pwrStateResidencyTicks::UNDEFINED    723231000                       # Cumulative time (in ticks) in various power states
system.ruby.network.netifs32.pwrStateResidencyTicks::UNDEFINED    723231000                       # Cumulative time (in ticks) in various power states
system.ruby.network.netifs33.pwrStateResidencyTicks::UNDEFINED    723231000                       # Cumulative time (in ticks) in various power states
system.ruby.network.netifs34.pwrStateResidencyTicks::UNDEFINED    723231000                       # Cumulative time (in ticks) in various power states
system.ruby.network.netifs35.pwrStateResidencyTicks::UNDEFINED    723231000                       # Cumulative time (in ticks) in various power states
system.ruby.network.packet_network_latency |      567338                       |      601740                       |      151995                      
system.ruby.network.packet_queueing_latency |       44715                       |       29299                       |        6491                      
system.ruby.network.packets_injected     |       19454     42.72%     42.72% |       19634     43.12%     85.84% |        6446     14.16%    100.00%
system.ruby.network.packets_injected::total        45534                      
system.ruby.network.packets_received     |       19454     42.72%     42.72% |       19634     43.12%     85.84% |        6446     14.16%    100.00%
system.ruby.network.packets_received::total        45534                      
system.ruby.network.pwrStateResidencyTicks::UNDEFINED    723231000                       # Cumulative time (in ticks) in various power states
system.ruby.network.routers00.buffer_reads        92982                      
system.ruby.network.routers00.buffer_writes        92982                      
system.ruby.network.routers00.crossbar_activity        92982                      
system.ruby.network.routers00.pwrStateResidencyTicks::UNDEFINED    723231000                       # Cumulative time (in ticks) in various power states
system.ruby.network.routers00.sw_input_arbiter_activity        93010                      
system.ruby.network.routers00.sw_output_arbiter_activity        92982                      
system.ruby.network.routers01.buffer_reads        39348                      
system.ruby.network.routers01.buffer_writes        39348                      
system.ruby.network.routers01.crossbar_activity        39348                      
system.ruby.network.routers01.pwrStateResidencyTicks::UNDEFINED    723231000                       # Cumulative time (in ticks) in various power states
system.ruby.network.routers01.sw_input_arbiter_activity        39367                      
system.ruby.network.routers01.sw_output_arbiter_activity        39348                      
system.ruby.network.routers02.buffer_reads        26626                      
system.ruby.network.routers02.buffer_writes        26626                      
system.ruby.network.routers02.crossbar_activity        26626                      
system.ruby.network.routers02.pwrStateResidencyTicks::UNDEFINED    723231000                       # Cumulative time (in ticks) in various power states
system.ruby.network.routers02.sw_input_arbiter_activity        26641                      
system.ruby.network.routers02.sw_output_arbiter_activity        26626                      
system.ruby.network.routers03.buffer_reads        15961                      
system.ruby.network.routers03.buffer_writes        15961                      
system.ruby.network.routers03.crossbar_activity        15961                      
system.ruby.network.routers03.pwrStateResidencyTicks::UNDEFINED    723231000                       # Cumulative time (in ticks) in various power states
system.ruby.network.routers03.sw_input_arbiter_activity        15962                      
system.ruby.network.routers03.sw_output_arbiter_activity        15961                      
system.ruby.network.routers04.buffer_reads        54085                      
system.ruby.network.routers04.buffer_writes        54085                      
system.ruby.network.routers04.crossbar_activity        54085                      
system.ruby.network.routers04.pwrStateResidencyTicks::UNDEFINED    723231000                       # Cumulative time (in ticks) in various power states
system.ruby.network.routers04.sw_input_arbiter_activity        54100                      
system.ruby.network.routers04.sw_output_arbiter_activity        54085                      
system.ruby.network.routers05.buffer_reads        20067                      
system.ruby.network.routers05.buffer_writes        20067                      
system.ruby.network.routers05.crossbar_activity        20067                      
system.ruby.network.routers05.pwrStateResidencyTicks::UNDEFINED    723231000                       # Cumulative time (in ticks) in various power states
system.ruby.network.routers05.sw_input_arbiter_activity        20072                      
system.ruby.network.routers05.sw_output_arbiter_activity        20067                      
system.ruby.network.routers06.buffer_reads        14897                      
system.ruby.network.routers06.buffer_writes        14897                      
system.ruby.network.routers06.crossbar_activity        14897                      
system.ruby.network.routers06.pwrStateResidencyTicks::UNDEFINED    723231000                       # Cumulative time (in ticks) in various power states
system.ruby.network.routers06.sw_input_arbiter_activity        14901                      
system.ruby.network.routers06.sw_output_arbiter_activity        14897                      
system.ruby.network.routers07.buffer_reads        12152                      
system.ruby.network.routers07.buffer_writes        12152                      
system.ruby.network.routers07.crossbar_activity        12152                      
system.ruby.network.routers07.pwrStateResidencyTicks::UNDEFINED    723231000                       # Cumulative time (in ticks) in various power states
system.ruby.network.routers07.sw_input_arbiter_activity        12161                      
system.ruby.network.routers07.sw_output_arbiter_activity        12152                      
system.ruby.network.routers08.buffer_reads        36696                      
system.ruby.network.routers08.buffer_writes        36696                      
system.ruby.network.routers08.crossbar_activity        36696                      
system.ruby.network.routers08.pwrStateResidencyTicks::UNDEFINED    723231000                       # Cumulative time (in ticks) in various power states
system.ruby.network.routers08.sw_input_arbiter_activity        36711                      
system.ruby.network.routers08.sw_output_arbiter_activity        36696                      
system.ruby.network.routers09.buffer_reads        18063                      
system.ruby.network.routers09.buffer_writes        18063                      
system.ruby.network.routers09.crossbar_activity        18063                      
system.ruby.network.routers09.pwrStateResidencyTicks::UNDEFINED    723231000                       # Cumulative time (in ticks) in various power states
system.ruby.network.routers09.sw_input_arbiter_activity        18070                      
system.ruby.network.routers09.sw_output_arbiter_activity        18063                      
system.ruby.network.routers10.buffer_reads        17215                      
system.ruby.network.routers10.buffer_writes        17215                      
system.ruby.network.routers10.crossbar_activity        17215                      
system.ruby.network.routers10.pwrStateResidencyTicks::UNDEFINED    723231000                       # Cumulative time (in ticks) in various power states
system.ruby.network.routers10.sw_input_arbiter_activity        17225                      
system.ruby.network.routers10.sw_output_arbiter_activity        17215                      
system.ruby.network.routers11.buffer_reads        13126                      
system.ruby.network.routers11.buffer_writes        13126                      
system.ruby.network.routers11.crossbar_activity        13126                      
system.ruby.network.routers11.pwrStateResidencyTicks::UNDEFINED    723231000                       # Cumulative time (in ticks) in various power states
system.ruby.network.routers11.sw_input_arbiter_activity        13133                      
system.ruby.network.routers11.sw_output_arbiter_activity        13126                      
system.ruby.network.routers12.buffer_reads        24498                      
system.ruby.network.routers12.buffer_writes        24498                      
system.ruby.network.routers12.crossbar_activity        24498                      
system.ruby.network.routers12.pwrStateResidencyTicks::UNDEFINED    723231000                       # Cumulative time (in ticks) in various power states
system.ruby.network.routers12.sw_input_arbiter_activity        24506                      
system.ruby.network.routers12.sw_output_arbiter_activity        24498                      
system.ruby.network.routers13.buffer_reads        19375                      
system.ruby.network.routers13.buffer_writes        19375                      
system.ruby.network.routers13.crossbar_activity        19375                      
system.ruby.network.routers13.pwrStateResidencyTicks::UNDEFINED    723231000                       # Cumulative time (in ticks) in various power states
system.ruby.network.routers13.sw_input_arbiter_activity        19387                      
system.ruby.network.routers13.sw_output_arbiter_activity        19375                      
system.ruby.network.routers14.buffer_reads        15429                      
system.ruby.network.routers14.buffer_writes        15429                      
system.ruby.network.routers14.crossbar_activity        15429                      
system.ruby.network.routers14.pwrStateResidencyTicks::UNDEFINED    723231000                       # Cumulative time (in ticks) in various power states
system.ruby.network.routers14.sw_input_arbiter_activity        15435                      
system.ruby.network.routers14.sw_output_arbiter_activity        15429                      
system.ruby.network.routers15.buffer_reads        11513                      
system.ruby.network.routers15.buffer_writes        11513                      
system.ruby.network.routers15.crossbar_activity        11513                      
system.ruby.network.routers15.pwrStateResidencyTicks::UNDEFINED    723231000                       # Cumulative time (in ticks) in various power states
system.ruby.network.routers15.sw_input_arbiter_activity        11520                      
system.ruby.network.routers15.sw_output_arbiter_activity        11513                      
system.ruby.outstanding_req_hist_seqr::bucket_size            1                      
system.ruby.outstanding_req_hist_seqr::max_bucket            9                      
system.ruby.outstanding_req_hist_seqr::samples       253080                      
system.ruby.outstanding_req_hist_seqr::mean            1                      
system.ruby.outstanding_req_hist_seqr::gmean            1                      
system.ruby.outstanding_req_hist_seqr    |           0      0.00%      0.00% |      253080    100.00%    100.00% |           0      0.00%    100.00% |           0      0.00%    100.00% |           0      0.00%    100.00% |           0      0.00%    100.00% |           0      0.00%    100.00% |           0      0.00%    100.00% |           0      0.00%    100.00% |           0      0.00%    100.00%
system.ruby.outstanding_req_hist_seqr::total       253080                      
system.ruby.pwrStateResidencyTicks::UNDEFINED    723231000                       # Cumulative time (in ticks) in various power states
system.sys_port_proxy.pwrStateResidencyTicks::UNDEFINED    723231000                       # Cumulative time (in ticks) in various power states
system.voltage_domain.voltage                       1                       # Voltage in Volts

---------- End Simulation Statistics   ----------
