
---------- Begin Simulation Statistics ----------
final_tick                                  524401000                       # Number of ticks from beginning of simulation (restored from checkpoints and never reset)
host_inst_rate                                  42646                       # Simulator instruction rate (inst/s)
host_mem_usage                                5159720                       # Number of bytes of host memory used
host_op_rate                                    42741                       # Simulator op (including micro ops) rate (op/s)
host_seconds                                     3.88                       # Real time elapsed on the host
host_tick_rate                              135182749                       # Simulator tick rate (ticks/s)
sim_freq                                 1000000000000                       # Frequency of simulated ticks
sim_insts                                      165419                       # Number of instructions simulated
sim_ops                                        165801                       # Number of ops (including micro ops) simulated
sim_seconds                                  0.000524                       # Number of seconds simulated
sim_ticks                                   524401000                       # Number of ticks simulated
system.clk_domain.clock                          1000                       # Clock period in ticks
system.cpu00.Branches                           22357                       # Number of branches fetched
system.cpu00.committedInsts                    100000                       # Number of instructions committed
system.cpu00.committedOps                      100293                       # Number of ops (including micro ops) committed
system.cpu00.dtb.accesses                           0                       # DTB accesses
system.cpu00.dtb.hits                               0                       # DTB hits
system.cpu00.dtb.misses                             0                       # DTB misses
system.cpu00.dtb.pwrStateResidencyTicks::UNDEFINED    524401000                       # Cumulative time (in ticks) in various power states
system.cpu00.dtb.read_accesses                      0                       # DTB read accesses
system.cpu00.dtb.read_hits                          0                       # DTB read hits
system.cpu00.dtb.read_misses                        0                       # DTB read misses
system.cpu00.dtb.write_accesses                     0                       # DTB write accesses
system.cpu00.dtb.write_hits                         0                       # DTB write hits
system.cpu00.dtb.write_misses                       0                       # DTB write misses
system.cpu00.idle_fraction                   0.005660                       # Percentage of idle cycles
system.cpu00.itb.accesses                           0                       # DTB accesses
system.cpu00.itb.hits                               0                       # DTB hits
system.cpu00.itb.misses                             0                       # DTB misses
system.cpu00.itb.pwrStateResidencyTicks::UNDEFINED    524401000                       # Cumulative time (in ticks) in various power states
system.cpu00.itb.read_accesses                      0                       # DTB read accesses
system.cpu00.itb.read_hits                          0                       # DTB read hits
system.cpu00.itb.read_misses                        0                       # DTB read misses
system.cpu00.itb.write_accesses                     0                       # DTB write accesses
system.cpu00.itb.write_hits                         0                       # DTB write hits
system.cpu00.itb.write_misses                       0                       # DTB write misses
system.cpu00.not_idle_fraction               0.994340                       # Percentage of non-idle cycles
system.cpu00.numCycles                        1048802                       # number of cpu cycles simulated
system.cpu00.numPwrStateTransitions                 2                       # Number of power state transitions
system.cpu00.numWorkItemsCompleted                  0                       # number of work items this cpu completed
system.cpu00.numWorkItemsStarted                    0                       # number of work items this cpu started
system.cpu00.num_busy_cycles             1042866.000011                       # Number of busy cycles
system.cpu00.num_conditional_control_insts        15945                       # number of instructions that are conditional controls
system.cpu00.num_fp_alu_accesses                   12                       # Number of float alu accesses
system.cpu00.num_fp_insts                          12                       # number of float instructions
system.cpu00.num_fp_register_reads                 12                       # number of times the floating registers were read
system.cpu00.num_fp_register_writes                 0                       # number of times the floating registers were written
system.cpu00.num_func_calls                      6412                       # number of times a function call or return occured
system.cpu00.num_idle_cycles              5935.999989                       # Number of idle cycles
system.cpu00.num_int_alu_accesses               98835                       # Number of integer alu accesses
system.cpu00.num_int_insts                      98835                       # number of integer instructions
system.cpu00.num_int_register_reads            120856                       # number of times the integer registers were read
system.cpu00.num_int_register_writes            64470                       # number of times the integer registers were written
system.cpu00.num_load_insts                     20279                       # Number of load instructions
system.cpu00.num_mem_refs                       36536                       # number of memory refs
system.cpu00.num_store_insts                    16257                       # Number of store instructions
system.cpu00.num_vec_alu_accesses                   0                       # Number of vector alu accesses
system.cpu00.num_vec_insts                          0                       # number of vector instructions
system.cpu00.num_vec_register_reads                 0                       # number of times the vector registers were read
system.cpu00.num_vec_register_writes                0                       # number of times the vector registers were written
system.cpu00.op_class::No_OpClass                 860      0.86%      0.86% # Class of executed instruction
system.cpu00.op_class::IntAlu                   62934     62.70%     63.56% # Class of executed instruction
system.cpu00.op_class::IntMult                     30      0.03%     63.59% # Class of executed instruction
system.cpu00.op_class::IntDiv                       6      0.01%     63.60% # Class of executed instruction
system.cpu00.op_class::FloatAdd                     0      0.00%     63.60% # Class of executed instruction
system.cpu00.op_class::FloatCmp                     0      0.00%     63.60% # Class of executed instruction
system.cpu00.op_class::FloatCvt                     0      0.00%     63.60% # Class of executed instruction
system.cpu00.op_class::FloatMult                    0      0.00%     63.60% # Class of executed instruction
system.cpu00.op_class::FloatMultAcc                 0      0.00%     63.60% # Class of executed instruction
system.cpu00.op_class::FloatDiv                     0      0.00%     63.60% # Class of executed instruction
system.cpu00.op_class::FloatMisc                    0      0.00%     63.60% # Class of executed instruction
system.cpu00.op_class::FloatSqrt                    0      0.00%     63.60% # Class of executed instruction
system.cpu00.op_class::SimdAdd                      0      0.00%     63.60% # Class of executed instruction
system.cpu00.op_class::SimdAddAcc                   0      0.00%     63.60% # Class of executed instruction
system.cpu00.op_class::SimdAlu                      0      0.00%     63.60% # Class of executed instruction
system.cpu00.op_class::SimdCmp                      0      0.00%     63.60% # Class of executed instruction
system.cpu00.op_class::SimdCvt                      0      0.00%     63.60% # Class of executed instruction
system.cpu00.op_class::SimdMisc                     0      0.00%     63.60% # Class of executed instruction
system.cpu00.op_class::SimdMult                     0      0.00%     63.60% # Class of executed instruction
system.cpu00.op_class::SimdMultAcc                  0      0.00%     63.60% # Class of executed instruction
system.cpu00.op_class::SimdShift                    0      0.00%     63.60% # Class of executed instruction
system.cpu00.op_class::SimdShiftAcc                 0      0.00%     63.60% # Class of executed instruction
system.cpu00.op_class::SimdSqrt                     0      0.00%     63.60% # Class of executed instruction
system.cpu00.op_class::SimdFloatAdd                 0      0.00%     63.60% # Class of executed instruction
system.cpu00.op_class::SimdFloatAlu                 0      0.00%     63.60% # Class of executed instruction
system.cpu00.op_class::SimdFloatCmp                 0      0.00%     63.60% # Class of executed instruction
system.cpu00.op_class::SimdFloatCvt                 0      0.00%     63.60% # Class of executed instruction
system.cpu00.op_class::SimdFloatDiv                 0      0.00%     63.60% # Class of executed instruction
system.cpu00.op_class::SimdFloatMisc                0      0.00%     63.60% # Class of executed instruction
system.cpu00.op_class::SimdFloatMult                0      0.00%     63.60% # Class of executed instruction
system.cpu00.op_class::SimdFloatMultAcc             0      0.00%     63.60% # Class of executed instruction
system.cpu00.op_class::SimdFloatSqrt                0      0.00%     63.60% # Class of executed instruction
system.cpu00.op_class::SimdAes                      0      0.00%     63.60% # Class of executed instruction
system.cpu00.op_class::SimdAesMix                   0      0.00%     63.60% # Class of executed instruction
system.cpu00.op_class::SimdSha1Hash                 0      0.00%     63.60% # Class of executed instruction
system.cpu00.op_class::SimdSha1Hash2                0      0.00%     63.60% # Class of executed instruction
system.cpu00.op_class::SimdSha256Hash               0      0.00%     63.60% # Class of executed instruction
system.cpu00.op_class::SimdSha256Hash2              0      0.00%     63.60% # Class of executed instruction
system.cpu00.op_class::SimdShaSigma2                0      0.00%     63.60% # Class of executed instruction
system.cpu00.op_class::SimdShaSigma3                0      0.00%     63.60% # Class of executed instruction
system.cpu00.op_class::MemRead                  20564     20.49%     84.09% # Class of executed instruction
system.cpu00.op_class::MemWrite                 15960     15.90%     99.99% # Class of executed instruction
system.cpu00.op_class::FloatMemRead                 0      0.00%     99.99% # Class of executed instruction
system.cpu00.op_class::FloatMemWrite               12      0.01%    100.00% # Class of executed instruction
system.cpu00.op_class::IprAccess                    0      0.00%    100.00% # Class of executed instruction
system.cpu00.op_class::InstPrefetch                 0      0.00%    100.00% # Class of executed instruction
system.cpu00.op_class::total                   100366                       # Class of executed instruction
system.cpu00.pwrStateClkGateDist::samples            1                       # Distribution of time spent in the clock gated state
system.cpu00.pwrStateClkGateDist::mean        2968000                       # Distribution of time spent in the clock gated state
system.cpu00.pwrStateClkGateDist::1000-5e+10            1    100.00%    100.00% # Distribution of time spent in the clock gated state
system.cpu00.pwrStateClkGateDist::min_value      2968000                       # Distribution of time spent in the clock gated state
system.cpu00.pwrStateClkGateDist::max_value      2968000                       # Distribution of time spent in the clock gated state
system.cpu00.pwrStateClkGateDist::total             1                       # Distribution of time spent in the clock gated state
system.cpu00.pwrStateResidencyTicks::ON     521433000                       # Cumulative time (in ticks) in various power states
system.cpu00.pwrStateResidencyTicks::CLK_GATED      2968000                       # Cumulative time (in ticks) in various power states
system.cpu00.workload.numSyscalls                  72                       # Number of system calls
system.cpu01.Branches                             887                       # Number of branches fetched
system.cpu01.committedInsts                      4725                       # Number of instructions committed
system.cpu01.committedOps                        4731                       # Number of ops (including micro ops) committed
system.cpu01.dtb.accesses                           0                       # DTB accesses
system.cpu01.dtb.hits                               0                       # DTB hits
system.cpu01.dtb.misses                             0                       # DTB misses
system.cpu01.dtb.pwrStateResidencyTicks::UNDEFINED    524401000                       # Cumulative time (in ticks) in various power states
system.cpu01.dtb.read_accesses                      0                       # DTB read accesses
system.cpu01.dtb.read_hits                          0                       # DTB read hits
system.cpu01.dtb.read_misses                        0                       # DTB read misses
system.cpu01.dtb.write_accesses                     0                       # DTB write accesses
system.cpu01.dtb.write_hits                         0                       # DTB write hits
system.cpu01.dtb.write_misses                       0                       # DTB write misses
system.cpu01.idle_fraction                   0.978578                       # Percentage of idle cycles
system.cpu01.itb.accesses                           0                       # DTB accesses
system.cpu01.itb.hits                               0                       # DTB hits
system.cpu01.itb.misses                             0                       # DTB misses
system.cpu01.itb.pwrStateResidencyTicks::UNDEFINED    524401000                       # Cumulative time (in ticks) in various power states
system.cpu01.itb.read_accesses                      0                       # DTB read accesses
system.cpu01.itb.read_hits                          0                       # DTB read hits
system.cpu01.itb.read_misses                        0                       # DTB read misses
system.cpu01.itb.write_accesses                     0                       # DTB write accesses
system.cpu01.itb.write_hits                         0                       # DTB write hits
system.cpu01.itb.write_misses                       0                       # DTB write misses
system.cpu01.not_idle_fraction               0.021422                       # Percentage of non-idle cycles
system.cpu01.numCycles                        1048801                       # number of cpu cycles simulated
system.cpu01.numPwrStateTransitions                 2                       # Number of power state transitions
system.cpu01.numWorkItemsCompleted                  0                       # number of work items this cpu completed
system.cpu01.numWorkItemsStarted                    0                       # number of work items this cpu started
system.cpu01.num_busy_cycles             22466.980536                       # Number of busy cycles
system.cpu01.num_conditional_control_insts          464                       # number of instructions that are conditional controls
system.cpu01.num_fp_alu_accesses                   12                       # Number of float alu accesses
system.cpu01.num_fp_insts                          12                       # number of float instructions
system.cpu01.num_fp_register_reads                 12                       # number of times the floating registers were read
system.cpu01.num_fp_register_writes                 0                       # number of times the floating registers were written
system.cpu01.num_func_calls                       423                       # number of times a function call or return occured
system.cpu01.num_idle_cycles             1026334.019464                       # Number of idle cycles
system.cpu01.num_int_alu_accesses                4649                       # Number of integer alu accesses
system.cpu01.num_int_insts                       4649                       # number of integer instructions
system.cpu01.num_int_register_reads              5356                       # number of times the integer registers were read
system.cpu01.num_int_register_writes             3446                       # number of times the integer registers were written
system.cpu01.num_load_insts                      1154                       # Number of load instructions
system.cpu01.num_mem_refs                        1713                       # number of memory refs
system.cpu01.num_store_insts                      559                       # Number of store instructions
system.cpu01.num_vec_alu_accesses                   0                       # Number of vector alu accesses
system.cpu01.num_vec_insts                          0                       # number of vector instructions
system.cpu01.num_vec_register_reads                 0                       # number of times the vector registers were read
system.cpu01.num_vec_register_writes                0                       # number of times the vector registers were written
system.cpu01.op_class::No_OpClass                  10      0.21%      0.21% # Class of executed instruction
system.cpu01.op_class::IntAlu                    3007     63.53%     63.74% # Class of executed instruction
system.cpu01.op_class::IntMult                      1      0.02%     63.77% # Class of executed instruction
system.cpu01.op_class::IntDiv                       2      0.04%     63.81% # Class of executed instruction
system.cpu01.op_class::FloatAdd                     0      0.00%     63.81% # Class of executed instruction
system.cpu01.op_class::FloatCmp                     0      0.00%     63.81% # Class of executed instruction
system.cpu01.op_class::FloatCvt                     0      0.00%     63.81% # Class of executed instruction
system.cpu01.op_class::FloatMult                    0      0.00%     63.81% # Class of executed instruction
system.cpu01.op_class::FloatMultAcc                 0      0.00%     63.81% # Class of executed instruction
system.cpu01.op_class::FloatDiv                     0      0.00%     63.81% # Class of executed instruction
system.cpu01.op_class::FloatMisc                    0      0.00%     63.81% # Class of executed instruction
system.cpu01.op_class::FloatSqrt                    0      0.00%     63.81% # Class of executed instruction
system.cpu01.op_class::SimdAdd                      0      0.00%     63.81% # Class of executed instruction
system.cpu01.op_class::SimdAddAcc                   0      0.00%     63.81% # Class of executed instruction
system.cpu01.op_class::SimdAlu                      0      0.00%     63.81% # Class of executed instruction
system.cpu01.op_class::SimdCmp                      0      0.00%     63.81% # Class of executed instruction
system.cpu01.op_class::SimdCvt                      0      0.00%     63.81% # Class of executed instruction
system.cpu01.op_class::SimdMisc                     0      0.00%     63.81% # Class of executed instruction
system.cpu01.op_class::SimdMult                     0      0.00%     63.81% # Class of executed instruction
system.cpu01.op_class::SimdMultAcc                  0      0.00%     63.81% # Class of executed instruction
system.cpu01.op_class::SimdShift                    0      0.00%     63.81% # Class of executed instruction
system.cpu01.op_class::SimdShiftAcc                 0      0.00%     63.81% # Class of executed instruction
system.cpu01.op_class::SimdSqrt                     0      0.00%     63.81% # Class of executed instruction
system.cpu01.op_class::SimdFloatAdd                 0      0.00%     63.81% # Class of executed instruction
system.cpu01.op_class::SimdFloatAlu                 0      0.00%     63.81% # Class of executed instruction
system.cpu01.op_class::SimdFloatCmp                 0      0.00%     63.81% # Class of executed instruction
system.cpu01.op_class::SimdFloatCvt                 0      0.00%     63.81% # Class of executed instruction
system.cpu01.op_class::SimdFloatDiv                 0      0.00%     63.81% # Class of executed instruction
system.cpu01.op_class::SimdFloatMisc                0      0.00%     63.81% # Class of executed instruction
system.cpu01.op_class::SimdFloatMult                0      0.00%     63.81% # Class of executed instruction
system.cpu01.op_class::SimdFloatMultAcc             0      0.00%     63.81% # Class of executed instruction
system.cpu01.op_class::SimdFloatSqrt                0      0.00%     63.81% # Class of executed instruction
system.cpu01.op_class::SimdAes                      0      0.00%     63.81% # Class of executed instruction
system.cpu01.op_class::SimdAesMix                   0      0.00%     63.81% # Class of executed instruction
system.cpu01.op_class::SimdSha1Hash                 0      0.00%     63.81% # Class of executed instruction
system.cpu01.op_class::SimdSha1Hash2                0      0.00%     63.81% # Class of executed instruction
system.cpu01.op_class::SimdSha256Hash               0      0.00%     63.81% # Class of executed instruction
system.cpu01.op_class::SimdSha256Hash2              0      0.00%     63.81% # Class of executed instruction
system.cpu01.op_class::SimdShaSigma2                0      0.00%     63.81% # Class of executed instruction
system.cpu01.op_class::SimdShaSigma3                0      0.00%     63.81% # Class of executed instruction
system.cpu01.op_class::MemRead                   1158     24.47%     88.27% # Class of executed instruction
system.cpu01.op_class::MemWrite                   543     11.47%     99.75% # Class of executed instruction
system.cpu01.op_class::FloatMemRead                 0      0.00%     99.75% # Class of executed instruction
system.cpu01.op_class::FloatMemWrite               12      0.25%    100.00% # Class of executed instruction
system.cpu01.op_class::IprAccess                    0      0.00%    100.00% # Class of executed instruction
system.cpu01.op_class::InstPrefetch                 0      0.00%    100.00% # Class of executed instruction
system.cpu01.op_class::total                     4733                       # Class of executed instruction
system.cpu01.pwrStateClkGateDist::samples            1                       # Distribution of time spent in the clock gated state
system.cpu01.pwrStateClkGateDist::mean      102748000                       # Distribution of time spent in the clock gated state
system.cpu01.pwrStateClkGateDist::1000-5e+10            1    100.00%    100.00% # Distribution of time spent in the clock gated state
system.cpu01.pwrStateClkGateDist::min_value    102748000                       # Distribution of time spent in the clock gated state
system.cpu01.pwrStateClkGateDist::max_value    102748000                       # Distribution of time spent in the clock gated state
system.cpu01.pwrStateClkGateDist::total             1                       # Distribution of time spent in the clock gated state
system.cpu01.pwrStateResidencyTicks::ON     421653000                       # Cumulative time (in ticks) in various power states
system.cpu01.pwrStateResidencyTicks::CLK_GATED    102748000                       # Cumulative time (in ticks) in various power states
system.cpu02.Branches                             883                       # Number of branches fetched
system.cpu02.committedInsts                      4702                       # Number of instructions committed
system.cpu02.committedOps                        4708                       # Number of ops (including micro ops) committed
system.cpu02.dtb.accesses                           0                       # DTB accesses
system.cpu02.dtb.hits                               0                       # DTB hits
system.cpu02.dtb.misses                             0                       # DTB misses
system.cpu02.dtb.pwrStateResidencyTicks::UNDEFINED    524401000                       # Cumulative time (in ticks) in various power states
system.cpu02.dtb.read_accesses                      0                       # DTB read accesses
system.cpu02.dtb.read_hits                          0                       # DTB read hits
system.cpu02.dtb.read_misses                        0                       # DTB read misses
system.cpu02.dtb.write_accesses                     0                       # DTB write accesses
system.cpu02.dtb.write_hits                         0                       # DTB write hits
system.cpu02.dtb.write_misses                       0                       # DTB write misses
system.cpu02.idle_fraction                   0.981367                       # Percentage of idle cycles
system.cpu02.itb.accesses                           0                       # DTB accesses
system.cpu02.itb.hits                               0                       # DTB hits
system.cpu02.itb.misses                             0                       # DTB misses
system.cpu02.itb.pwrStateResidencyTicks::UNDEFINED    524401000                       # Cumulative time (in ticks) in various power states
system.cpu02.itb.read_accesses                      0                       # DTB read accesses
system.cpu02.itb.read_hits                          0                       # DTB read hits
system.cpu02.itb.read_misses                        0                       # DTB read misses
system.cpu02.itb.write_accesses                     0                       # DTB write accesses
system.cpu02.itb.write_hits                         0                       # DTB write hits
system.cpu02.itb.write_misses                       0                       # DTB write misses
system.cpu02.not_idle_fraction               0.018633                       # Percentage of non-idle cycles
system.cpu02.numCycles                        1048801                       # number of cpu cycles simulated
system.cpu02.numPwrStateTransitions                 2                       # Number of power state transitions
system.cpu02.numWorkItemsCompleted                  0                       # number of work items this cpu completed
system.cpu02.numWorkItemsStarted                    0                       # number of work items this cpu started
system.cpu02.num_busy_cycles             19541.983330                       # Number of busy cycles
system.cpu02.num_conditional_control_insts          462                       # number of instructions that are conditional controls
system.cpu02.num_fp_alu_accesses                   12                       # Number of float alu accesses
system.cpu02.num_fp_insts                          12                       # number of float instructions
system.cpu02.num_fp_register_reads                 12                       # number of times the floating registers were read
system.cpu02.num_fp_register_writes                 0                       # number of times the floating registers were written
system.cpu02.num_func_calls                       421                       # number of times a function call or return occured
system.cpu02.num_idle_cycles             1029259.016670                       # Number of idle cycles
system.cpu02.num_int_alu_accesses                4626                       # Number of integer alu accesses
system.cpu02.num_int_insts                       4626                       # number of integer instructions
system.cpu02.num_int_register_reads              5332                       # number of times the integer registers were read
system.cpu02.num_int_register_writes             3428                       # number of times the integer registers were written
system.cpu02.num_load_insts                      1149                       # Number of load instructions
system.cpu02.num_mem_refs                        1706                       # number of memory refs
system.cpu02.num_store_insts                      557                       # Number of store instructions
system.cpu02.num_vec_alu_accesses                   0                       # Number of vector alu accesses
system.cpu02.num_vec_insts                          0                       # number of vector instructions
system.cpu02.num_vec_register_reads                 0                       # number of times the vector registers were read
system.cpu02.num_vec_register_writes                0                       # number of times the vector registers were written
system.cpu02.op_class::No_OpClass                  10      0.21%      0.21% # Class of executed instruction
system.cpu02.op_class::IntAlu                    2991     63.50%     63.72% # Class of executed instruction
system.cpu02.op_class::IntMult                      1      0.02%     63.74% # Class of executed instruction
system.cpu02.op_class::IntDiv                       2      0.04%     63.78% # Class of executed instruction
system.cpu02.op_class::FloatAdd                     0      0.00%     63.78% # Class of executed instruction
system.cpu02.op_class::FloatCmp                     0      0.00%     63.78% # Class of executed instruction
system.cpu02.op_class::FloatCvt                     0      0.00%     63.78% # Class of executed instruction
system.cpu02.op_class::FloatMult                    0      0.00%     63.78% # Class of executed instruction
system.cpu02.op_class::FloatMultAcc                 0      0.00%     63.78% # Class of executed instruction
system.cpu02.op_class::FloatDiv                     0      0.00%     63.78% # Class of executed instruction
system.cpu02.op_class::FloatMisc                    0      0.00%     63.78% # Class of executed instruction
system.cpu02.op_class::FloatSqrt                    0      0.00%     63.78% # Class of executed instruction
system.cpu02.op_class::SimdAdd                      0      0.00%     63.78% # Class of executed instruction
system.cpu02.op_class::SimdAddAcc                   0      0.00%     63.78% # Class of executed instruction
system.cpu02.op_class::SimdAlu                      0      0.00%     63.78% # Class of executed instruction
system.cpu02.op_class::SimdCmp                      0      0.00%     63.78% # Class of executed instruction
system.cpu02.op_class::SimdCvt                      0      0.00%     63.78% # Class of executed instruction
system.cpu02.op_class::SimdMisc                     0      0.00%     63.78% # Class of executed instruction
system.cpu02.op_class::SimdMult                     0      0.00%     63.78% # Class of executed instruction
system.cpu02.op_class::SimdMultAcc                  0      0.00%     63.78% # Class of executed instruction
system.cpu02.op_class::SimdShift                    0      0.00%     63.78% # Class of executed instruction
system.cpu02.op_class::SimdShiftAcc                 0      0.00%     63.78% # Class of executed instruction
system.cpu02.op_class::SimdSqrt                     0      0.00%     63.78% # Class of executed instruction
system.cpu02.op_class::SimdFloatAdd                 0      0.00%     63.78% # Class of executed instruction
system.cpu02.op_class::SimdFloatAlu                 0      0.00%     63.78% # Class of executed instruction
system.cpu02.op_class::SimdFloatCmp                 0      0.00%     63.78% # Class of executed instruction
system.cpu02.op_class::SimdFloatCvt                 0      0.00%     63.78% # Class of executed instruction
system.cpu02.op_class::SimdFloatDiv                 0      0.00%     63.78% # Class of executed instruction
system.cpu02.op_class::SimdFloatMisc                0      0.00%     63.78% # Class of executed instruction
system.cpu02.op_class::SimdFloatMult                0      0.00%     63.78% # Class of executed instruction
system.cpu02.op_class::SimdFloatMultAcc             0      0.00%     63.78% # Class of executed instruction
system.cpu02.op_class::SimdFloatSqrt                0      0.00%     63.78% # Class of executed instruction
system.cpu02.op_class::SimdAes                      0      0.00%     63.78% # Class of executed instruction
system.cpu02.op_class::SimdAesMix                   0      0.00%     63.78% # Class of executed instruction
system.cpu02.op_class::SimdSha1Hash                 0      0.00%     63.78% # Class of executed instruction
system.cpu02.op_class::SimdSha1Hash2                0      0.00%     63.78% # Class of executed instruction
system.cpu02.op_class::SimdSha256Hash               0      0.00%     63.78% # Class of executed instruction
system.cpu02.op_class::SimdSha256Hash2              0      0.00%     63.78% # Class of executed instruction
system.cpu02.op_class::SimdShaSigma2                0      0.00%     63.78% # Class of executed instruction
system.cpu02.op_class::SimdShaSigma3                0      0.00%     63.78% # Class of executed instruction
system.cpu02.op_class::MemRead                   1153     24.48%     88.26% # Class of executed instruction
system.cpu02.op_class::MemWrite                   541     11.49%     99.75% # Class of executed instruction
system.cpu02.op_class::FloatMemRead                 0      0.00%     99.75% # Class of executed instruction
system.cpu02.op_class::FloatMemWrite               12      0.25%    100.00% # Class of executed instruction
system.cpu02.op_class::IprAccess                    0      0.00%    100.00% # Class of executed instruction
system.cpu02.op_class::InstPrefetch                 0      0.00%    100.00% # Class of executed instruction
system.cpu02.op_class::total                     4710                       # Class of executed instruction
system.cpu02.pwrStateClkGateDist::samples            1                       # Distribution of time spent in the clock gated state
system.cpu02.pwrStateClkGateDist::mean       97243500                       # Distribution of time spent in the clock gated state
system.cpu02.pwrStateClkGateDist::1000-5e+10            1    100.00%    100.00% # Distribution of time spent in the clock gated state
system.cpu02.pwrStateClkGateDist::min_value     97243500                       # Distribution of time spent in the clock gated state
system.cpu02.pwrStateClkGateDist::max_value     97243500                       # Distribution of time spent in the clock gated state
system.cpu02.pwrStateClkGateDist::total             1                       # Distribution of time spent in the clock gated state
system.cpu02.pwrStateResidencyTicks::ON     427157500                       # Cumulative time (in ticks) in various power states
system.cpu02.pwrStateResidencyTicks::CLK_GATED     97243500                       # Cumulative time (in ticks) in various power states
system.cpu03.Branches                             888                       # Number of branches fetched
system.cpu03.committedInsts                      4693                       # Number of instructions committed
system.cpu03.committedOps                        4699                       # Number of ops (including micro ops) committed
system.cpu03.dtb.accesses                           0                       # DTB accesses
system.cpu03.dtb.hits                               0                       # DTB hits
system.cpu03.dtb.misses                             0                       # DTB misses
system.cpu03.dtb.pwrStateResidencyTicks::UNDEFINED    524401000                       # Cumulative time (in ticks) in various power states
system.cpu03.dtb.read_accesses                      0                       # DTB read accesses
system.cpu03.dtb.read_hits                          0                       # DTB read hits
system.cpu03.dtb.read_misses                        0                       # DTB read misses
system.cpu03.dtb.write_accesses                     0                       # DTB write accesses
system.cpu03.dtb.write_hits                         0                       # DTB write hits
system.cpu03.dtb.write_misses                       0                       # DTB write misses
system.cpu03.idle_fraction                   0.981141                       # Percentage of idle cycles
system.cpu03.itb.accesses                           0                       # DTB accesses
system.cpu03.itb.hits                               0                       # DTB hits
system.cpu03.itb.misses                             0                       # DTB misses
system.cpu03.itb.pwrStateResidencyTicks::UNDEFINED    524401000                       # Cumulative time (in ticks) in various power states
system.cpu03.itb.read_accesses                      0                       # DTB read accesses
system.cpu03.itb.read_hits                          0                       # DTB read hits
system.cpu03.itb.read_misses                        0                       # DTB read misses
system.cpu03.itb.write_accesses                     0                       # DTB write accesses
system.cpu03.itb.write_hits                         0                       # DTB write hits
system.cpu03.itb.write_misses                       0                       # DTB write misses
system.cpu03.not_idle_fraction               0.018859                       # Percentage of non-idle cycles
system.cpu03.numCycles                        1048801                       # number of cpu cycles simulated
system.cpu03.numPwrStateTransitions                 2                       # Number of power state transitions
system.cpu03.numWorkItemsCompleted                  0                       # number of work items this cpu completed
system.cpu03.numWorkItemsStarted                    0                       # number of work items this cpu started
system.cpu03.num_busy_cycles             19778.983104                       # Number of busy cycles
system.cpu03.num_conditional_control_insts          450                       # number of instructions that are conditional controls
system.cpu03.num_fp_alu_accesses                   12                       # Number of float alu accesses
system.cpu03.num_fp_insts                          12                       # number of float instructions
system.cpu03.num_fp_register_reads                 12                       # number of times the floating registers were read
system.cpu03.num_fp_register_writes                 0                       # number of times the floating registers were written
system.cpu03.num_func_calls                       438                       # number of times a function call or return occured
system.cpu03.num_idle_cycles             1029022.016896                       # Number of idle cycles
system.cpu03.num_int_alu_accesses                4601                       # Number of integer alu accesses
system.cpu03.num_int_insts                       4601                       # number of integer instructions
system.cpu03.num_int_register_reads              5307                       # number of times the integer registers were read
system.cpu03.num_int_register_writes             3414                       # number of times the integer registers were written
system.cpu03.num_load_insts                      1147                       # Number of load instructions
system.cpu03.num_mem_refs                        1701                       # number of memory refs
system.cpu03.num_store_insts                      554                       # Number of store instructions
system.cpu03.num_vec_alu_accesses                   0                       # Number of vector alu accesses
system.cpu03.num_vec_insts                          0                       # number of vector instructions
system.cpu03.num_vec_register_reads                 0                       # number of times the vector registers were read
system.cpu03.num_vec_register_writes                0                       # number of times the vector registers were written
system.cpu03.op_class::No_OpClass                  10      0.21%      0.21% # Class of executed instruction
system.cpu03.op_class::IntAlu                    2987     63.54%     63.75% # Class of executed instruction
system.cpu03.op_class::IntMult                      1      0.02%     63.77% # Class of executed instruction
system.cpu03.op_class::IntDiv                       2      0.04%     63.82% # Class of executed instruction
system.cpu03.op_class::FloatAdd                     0      0.00%     63.82% # Class of executed instruction
system.cpu03.op_class::FloatCmp                     0      0.00%     63.82% # Class of executed instruction
system.cpu03.op_class::FloatCvt                     0      0.00%     63.82% # Class of executed instruction
system.cpu03.op_class::FloatMult                    0      0.00%     63.82% # Class of executed instruction
system.cpu03.op_class::FloatMultAcc                 0      0.00%     63.82% # Class of executed instruction
system.cpu03.op_class::FloatDiv                     0      0.00%     63.82% # Class of executed instruction
system.cpu03.op_class::FloatMisc                    0      0.00%     63.82% # Class of executed instruction
system.cpu03.op_class::FloatSqrt                    0      0.00%     63.82% # Class of executed instruction
system.cpu03.op_class::SimdAdd                      0      0.00%     63.82% # Class of executed instruction
system.cpu03.op_class::SimdAddAcc                   0      0.00%     63.82% # Class of executed instruction
system.cpu03.op_class::SimdAlu                      0      0.00%     63.82% # Class of executed instruction
system.cpu03.op_class::SimdCmp                      0      0.00%     63.82% # Class of executed instruction
system.cpu03.op_class::SimdCvt                      0      0.00%     63.82% # Class of executed instruction
system.cpu03.op_class::SimdMisc                     0      0.00%     63.82% # Class of executed instruction
system.cpu03.op_class::SimdMult                     0      0.00%     63.82% # Class of executed instruction
system.cpu03.op_class::SimdMultAcc                  0      0.00%     63.82% # Class of executed instruction
system.cpu03.op_class::SimdShift                    0      0.00%     63.82% # Class of executed instruction
system.cpu03.op_class::SimdShiftAcc                 0      0.00%     63.82% # Class of executed instruction
system.cpu03.op_class::SimdSqrt                     0      0.00%     63.82% # Class of executed instruction
system.cpu03.op_class::SimdFloatAdd                 0      0.00%     63.82% # Class of executed instruction
system.cpu03.op_class::SimdFloatAlu                 0      0.00%     63.82% # Class of executed instruction
system.cpu03.op_class::SimdFloatCmp                 0      0.00%     63.82% # Class of executed instruction
system.cpu03.op_class::SimdFloatCvt                 0      0.00%     63.82% # Class of executed instruction
system.cpu03.op_class::SimdFloatDiv                 0      0.00%     63.82% # Class of executed instruction
system.cpu03.op_class::SimdFloatMisc                0      0.00%     63.82% # Class of executed instruction
system.cpu03.op_class::SimdFloatMult                0      0.00%     63.82% # Class of executed instruction
system.cpu03.op_class::SimdFloatMultAcc             0      0.00%     63.82% # Class of executed instruction
system.cpu03.op_class::SimdFloatSqrt                0      0.00%     63.82% # Class of executed instruction
system.cpu03.op_class::SimdAes                      0      0.00%     63.82% # Class of executed instruction
system.cpu03.op_class::SimdAesMix                   0      0.00%     63.82% # Class of executed instruction
system.cpu03.op_class::SimdSha1Hash                 0      0.00%     63.82% # Class of executed instruction
system.cpu03.op_class::SimdSha1Hash2                0      0.00%     63.82% # Class of executed instruction
system.cpu03.op_class::SimdSha256Hash               0      0.00%     63.82% # Class of executed instruction
system.cpu03.op_class::SimdSha256Hash2              0      0.00%     63.82% # Class of executed instruction
system.cpu03.op_class::SimdShaSigma2                0      0.00%     63.82% # Class of executed instruction
system.cpu03.op_class::SimdShaSigma3                0      0.00%     63.82% # Class of executed instruction
system.cpu03.op_class::MemRead                   1151     24.48%     88.30% # Class of executed instruction
system.cpu03.op_class::MemWrite                   538     11.44%     99.74% # Class of executed instruction
system.cpu03.op_class::FloatMemRead                 0      0.00%     99.74% # Class of executed instruction
system.cpu03.op_class::FloatMemWrite               12      0.26%    100.00% # Class of executed instruction
system.cpu03.op_class::IprAccess                    0      0.00%    100.00% # Class of executed instruction
system.cpu03.op_class::InstPrefetch                 0      0.00%    100.00% # Class of executed instruction
system.cpu03.op_class::total                     4701                       # Class of executed instruction
system.cpu03.pwrStateClkGateDist::samples            1                       # Distribution of time spent in the clock gated state
system.cpu03.pwrStateClkGateDist::mean       90182500                       # Distribution of time spent in the clock gated state
system.cpu03.pwrStateClkGateDist::1000-5e+10            1    100.00%    100.00% # Distribution of time spent in the clock gated state
system.cpu03.pwrStateClkGateDist::min_value     90182500                       # Distribution of time spent in the clock gated state
system.cpu03.pwrStateClkGateDist::max_value     90182500                       # Distribution of time spent in the clock gated state
system.cpu03.pwrStateClkGateDist::total             1                       # Distribution of time spent in the clock gated state
system.cpu03.pwrStateResidencyTicks::ON     434218500                       # Cumulative time (in ticks) in various power states
system.cpu03.pwrStateResidencyTicks::CLK_GATED     90182500                       # Cumulative time (in ticks) in various power states
system.cpu04.Branches                             879                       # Number of branches fetched
system.cpu04.committedInsts                      4645                       # Number of instructions committed
system.cpu04.committedOps                        4651                       # Number of ops (including micro ops) committed
system.cpu04.dtb.accesses                           0                       # DTB accesses
system.cpu04.dtb.hits                               0                       # DTB hits
system.cpu04.dtb.misses                             0                       # DTB misses
system.cpu04.dtb.pwrStateResidencyTicks::UNDEFINED    524401000                       # Cumulative time (in ticks) in various power states
system.cpu04.dtb.read_accesses                      0                       # DTB read accesses
system.cpu04.dtb.read_hits                          0                       # DTB read hits
system.cpu04.dtb.read_misses                        0                       # DTB read misses
system.cpu04.dtb.write_accesses                     0                       # DTB write accesses
system.cpu04.dtb.write_hits                         0                       # DTB write hits
system.cpu04.dtb.write_misses                       0                       # DTB write misses
system.cpu04.idle_fraction                   0.981147                       # Percentage of idle cycles
system.cpu04.itb.accesses                           0                       # DTB accesses
system.cpu04.itb.hits                               0                       # DTB hits
system.cpu04.itb.misses                             0                       # DTB misses
system.cpu04.itb.pwrStateResidencyTicks::UNDEFINED    524401000                       # Cumulative time (in ticks) in various power states
system.cpu04.itb.read_accesses                      0                       # DTB read accesses
system.cpu04.itb.read_hits                          0                       # DTB read hits
system.cpu04.itb.read_misses                        0                       # DTB read misses
system.cpu04.itb.write_accesses                     0                       # DTB write accesses
system.cpu04.itb.write_hits                         0                       # DTB write hits
system.cpu04.itb.write_misses                       0                       # DTB write misses
system.cpu04.not_idle_fraction               0.018853                       # Percentage of non-idle cycles
system.cpu04.numCycles                        1048801                       # number of cpu cycles simulated
system.cpu04.numPwrStateTransitions                 2                       # Number of power state transitions
system.cpu04.numWorkItemsCompleted                  0                       # number of work items this cpu completed
system.cpu04.numWorkItemsStarted                    0                       # number of work items this cpu started
system.cpu04.num_busy_cycles             19772.983109                       # Number of busy cycles
system.cpu04.num_conditional_control_insts          445                       # number of instructions that are conditional controls
system.cpu04.num_fp_alu_accesses                   12                       # Number of float alu accesses
system.cpu04.num_fp_insts                          12                       # number of float instructions
system.cpu04.num_fp_register_reads                 12                       # number of times the floating registers were read
system.cpu04.num_fp_register_writes                 0                       # number of times the floating registers were written
system.cpu04.num_func_calls                       434                       # number of times a function call or return occured
system.cpu04.num_idle_cycles             1029028.016891                       # Number of idle cycles
system.cpu04.num_int_alu_accesses                4553                       # Number of integer alu accesses
system.cpu04.num_int_insts                       4553                       # number of integer instructions
system.cpu04.num_int_register_reads              5253                       # number of times the integer registers were read
system.cpu04.num_int_register_writes             3378                       # number of times the integer registers were written
system.cpu04.num_load_insts                      1134                       # Number of load instructions
system.cpu04.num_mem_refs                        1683                       # number of memory refs
system.cpu04.num_store_insts                      549                       # Number of store instructions
system.cpu04.num_vec_alu_accesses                   0                       # Number of vector alu accesses
system.cpu04.num_vec_insts                          0                       # number of vector instructions
system.cpu04.num_vec_register_reads                 0                       # number of times the vector registers were read
system.cpu04.num_vec_register_writes                0                       # number of times the vector registers were written
system.cpu04.op_class::No_OpClass                  10      0.21%      0.21% # Class of executed instruction
system.cpu04.op_class::IntAlu                    2957     63.55%     63.77% # Class of executed instruction
system.cpu04.op_class::IntMult                      1      0.02%     63.79% # Class of executed instruction
system.cpu04.op_class::IntDiv                       2      0.04%     63.83% # Class of executed instruction
system.cpu04.op_class::FloatAdd                     0      0.00%     63.83% # Class of executed instruction
system.cpu04.op_class::FloatCmp                     0      0.00%     63.83% # Class of executed instruction
system.cpu04.op_class::FloatCvt                     0      0.00%     63.83% # Class of executed instruction
system.cpu04.op_class::FloatMult                    0      0.00%     63.83% # Class of executed instruction
system.cpu04.op_class::FloatMultAcc                 0      0.00%     63.83% # Class of executed instruction
system.cpu04.op_class::FloatDiv                     0      0.00%     63.83% # Class of executed instruction
system.cpu04.op_class::FloatMisc                    0      0.00%     63.83% # Class of executed instruction
system.cpu04.op_class::FloatSqrt                    0      0.00%     63.83% # Class of executed instruction
system.cpu04.op_class::SimdAdd                      0      0.00%     63.83% # Class of executed instruction
system.cpu04.op_class::SimdAddAcc                   0      0.00%     63.83% # Class of executed instruction
system.cpu04.op_class::SimdAlu                      0      0.00%     63.83% # Class of executed instruction
system.cpu04.op_class::SimdCmp                      0      0.00%     63.83% # Class of executed instruction
system.cpu04.op_class::SimdCvt                      0      0.00%     63.83% # Class of executed instruction
system.cpu04.op_class::SimdMisc                     0      0.00%     63.83% # Class of executed instruction
system.cpu04.op_class::SimdMult                     0      0.00%     63.83% # Class of executed instruction
system.cpu04.op_class::SimdMultAcc                  0      0.00%     63.83% # Class of executed instruction
system.cpu04.op_class::SimdShift                    0      0.00%     63.83% # Class of executed instruction
system.cpu04.op_class::SimdShiftAcc                 0      0.00%     63.83% # Class of executed instruction
system.cpu04.op_class::SimdSqrt                     0      0.00%     63.83% # Class of executed instruction
system.cpu04.op_class::SimdFloatAdd                 0      0.00%     63.83% # Class of executed instruction
system.cpu04.op_class::SimdFloatAlu                 0      0.00%     63.83% # Class of executed instruction
system.cpu04.op_class::SimdFloatCmp                 0      0.00%     63.83% # Class of executed instruction
system.cpu04.op_class::SimdFloatCvt                 0      0.00%     63.83% # Class of executed instruction
system.cpu04.op_class::SimdFloatDiv                 0      0.00%     63.83% # Class of executed instruction
system.cpu04.op_class::SimdFloatMisc                0      0.00%     63.83% # Class of executed instruction
system.cpu04.op_class::SimdFloatMult                0      0.00%     63.83% # Class of executed instruction
system.cpu04.op_class::SimdFloatMultAcc             0      0.00%     63.83% # Class of executed instruction
system.cpu04.op_class::SimdFloatSqrt                0      0.00%     63.83% # Class of executed instruction
system.cpu04.op_class::SimdAes                      0      0.00%     63.83% # Class of executed instruction
system.cpu04.op_class::SimdAesMix                   0      0.00%     63.83% # Class of executed instruction
system.cpu04.op_class::SimdSha1Hash                 0      0.00%     63.83% # Class of executed instruction
system.cpu04.op_class::SimdSha1Hash2                0      0.00%     63.83% # Class of executed instruction
system.cpu04.op_class::SimdSha256Hash               0      0.00%     63.83% # Class of executed instruction
system.cpu04.op_class::SimdSha256Hash2              0      0.00%     63.83% # Class of executed instruction
system.cpu04.op_class::SimdShaSigma2                0      0.00%     63.83% # Class of executed instruction
system.cpu04.op_class::SimdShaSigma3                0      0.00%     63.83% # Class of executed instruction
system.cpu04.op_class::MemRead                   1138     24.46%     88.29% # Class of executed instruction
system.cpu04.op_class::MemWrite                   533     11.45%     99.74% # Class of executed instruction
system.cpu04.op_class::FloatMemRead                 0      0.00%     99.74% # Class of executed instruction
system.cpu04.op_class::FloatMemWrite               12      0.26%    100.00% # Class of executed instruction
system.cpu04.op_class::IprAccess                    0      0.00%    100.00% # Class of executed instruction
system.cpu04.op_class::InstPrefetch                 0      0.00%    100.00% # Class of executed instruction
system.cpu04.op_class::total                     4653                       # Class of executed instruction
system.cpu04.pwrStateClkGateDist::samples            1                       # Distribution of time spent in the clock gated state
system.cpu04.pwrStateClkGateDist::mean       82237500                       # Distribution of time spent in the clock gated state
system.cpu04.pwrStateClkGateDist::1000-5e+10            1    100.00%    100.00% # Distribution of time spent in the clock gated state
system.cpu04.pwrStateClkGateDist::min_value     82237500                       # Distribution of time spent in the clock gated state
system.cpu04.pwrStateClkGateDist::max_value     82237500                       # Distribution of time spent in the clock gated state
system.cpu04.pwrStateClkGateDist::total             1                       # Distribution of time spent in the clock gated state
system.cpu04.pwrStateResidencyTicks::ON     442163500                       # Cumulative time (in ticks) in various power states
system.cpu04.pwrStateResidencyTicks::CLK_GATED     82237500                       # Cumulative time (in ticks) in various power states
system.cpu05.Branches                             885                       # Number of branches fetched
system.cpu05.committedInsts                      4687                       # Number of instructions committed
system.cpu05.committedOps                        4693                       # Number of ops (including micro ops) committed
system.cpu05.dtb.accesses                           0                       # DTB accesses
system.cpu05.dtb.hits                               0                       # DTB hits
system.cpu05.dtb.misses                             0                       # DTB misses
system.cpu05.dtb.pwrStateResidencyTicks::UNDEFINED    524401000                       # Cumulative time (in ticks) in various power states
system.cpu05.dtb.read_accesses                      0                       # DTB read accesses
system.cpu05.dtb.read_hits                          0                       # DTB read hits
system.cpu05.dtb.read_misses                        0                       # DTB read misses
system.cpu05.dtb.write_accesses                     0                       # DTB write accesses
system.cpu05.dtb.write_hits                         0                       # DTB write hits
system.cpu05.dtb.write_misses                       0                       # DTB write misses
system.cpu05.idle_fraction                   0.981642                       # Percentage of idle cycles
system.cpu05.itb.accesses                           0                       # DTB accesses
system.cpu05.itb.hits                               0                       # DTB hits
system.cpu05.itb.misses                             0                       # DTB misses
system.cpu05.itb.pwrStateResidencyTicks::UNDEFINED    524401000                       # Cumulative time (in ticks) in various power states
system.cpu05.itb.read_accesses                      0                       # DTB read accesses
system.cpu05.itb.read_hits                          0                       # DTB read hits
system.cpu05.itb.read_misses                        0                       # DTB read misses
system.cpu05.itb.write_accesses                     0                       # DTB write accesses
system.cpu05.itb.write_hits                         0                       # DTB write hits
system.cpu05.itb.write_misses                       0                       # DTB write misses
system.cpu05.not_idle_fraction               0.018358                       # Percentage of non-idle cycles
system.cpu05.numCycles                        1048802                       # number of cpu cycles simulated
system.cpu05.numPwrStateTransitions                 2                       # Number of power state transitions
system.cpu05.numWorkItemsCompleted                  0                       # number of work items this cpu completed
system.cpu05.numWorkItemsStarted                    0                       # number of work items this cpu started
system.cpu05.num_busy_cycles             19254.001963                       # Number of busy cycles
system.cpu05.num_conditional_control_insts          451                       # number of instructions that are conditional controls
system.cpu05.num_fp_alu_accesses                   12                       # Number of float alu accesses
system.cpu05.num_fp_insts                          12                       # number of float instructions
system.cpu05.num_fp_register_reads                 12                       # number of times the floating registers were read
system.cpu05.num_fp_register_writes                 0                       # number of times the floating registers were written
system.cpu05.num_func_calls                       434                       # number of times a function call or return occured
system.cpu05.num_idle_cycles             1029547.998037                       # Number of idle cycles
system.cpu05.num_int_alu_accesses                4598                       # Number of integer alu accesses
system.cpu05.num_int_insts                       4598                       # number of integer instructions
system.cpu05.num_int_register_reads              5301                       # number of times the integer registers were read
system.cpu05.num_int_register_writes             3412                       # number of times the integer registers were written
system.cpu05.num_load_insts                      1144                       # Number of load instructions
system.cpu05.num_mem_refs                        1697                       # number of memory refs
system.cpu05.num_store_insts                      553                       # Number of store instructions
system.cpu05.num_vec_alu_accesses                   0                       # Number of vector alu accesses
system.cpu05.num_vec_insts                          0                       # number of vector instructions
system.cpu05.num_vec_register_reads                 0                       # number of times the vector registers were read
system.cpu05.num_vec_register_writes                0                       # number of times the vector registers were written
system.cpu05.op_class::No_OpClass                  10      0.21%      0.21% # Class of executed instruction
system.cpu05.op_class::IntAlu                    2985     63.58%     63.79% # Class of executed instruction
system.cpu05.op_class::IntMult                      1      0.02%     63.81% # Class of executed instruction
system.cpu05.op_class::IntDiv                       2      0.04%     63.86% # Class of executed instruction
system.cpu05.op_class::FloatAdd                     0      0.00%     63.86% # Class of executed instruction
system.cpu05.op_class::FloatCmp                     0      0.00%     63.86% # Class of executed instruction
system.cpu05.op_class::FloatCvt                     0      0.00%     63.86% # Class of executed instruction
system.cpu05.op_class::FloatMult                    0      0.00%     63.86% # Class of executed instruction
system.cpu05.op_class::FloatMultAcc                 0      0.00%     63.86% # Class of executed instruction
system.cpu05.op_class::FloatDiv                     0      0.00%     63.86% # Class of executed instruction
system.cpu05.op_class::FloatMisc                    0      0.00%     63.86% # Class of executed instruction
system.cpu05.op_class::FloatSqrt                    0      0.00%     63.86% # Class of executed instruction
system.cpu05.op_class::SimdAdd                      0      0.00%     63.86% # Class of executed instruction
system.cpu05.op_class::SimdAddAcc                   0      0.00%     63.86% # Class of executed instruction
system.cpu05.op_class::SimdAlu                      0      0.00%     63.86% # Class of executed instruction
system.cpu05.op_class::SimdCmp                      0      0.00%     63.86% # Class of executed instruction
system.cpu05.op_class::SimdCvt                      0      0.00%     63.86% # Class of executed instruction
system.cpu05.op_class::SimdMisc                     0      0.00%     63.86% # Class of executed instruction
system.cpu05.op_class::SimdMult                     0      0.00%     63.86% # Class of executed instruction
system.cpu05.op_class::SimdMultAcc                  0      0.00%     63.86% # Class of executed instruction
system.cpu05.op_class::SimdShift                    0      0.00%     63.86% # Class of executed instruction
system.cpu05.op_class::SimdShiftAcc                 0      0.00%     63.86% # Class of executed instruction
system.cpu05.op_class::SimdSqrt                     0      0.00%     63.86% # Class of executed instruction
system.cpu05.op_class::SimdFloatAdd                 0      0.00%     63.86% # Class of executed instruction
system.cpu05.op_class::SimdFloatAlu                 0      0.00%     63.86% # Class of executed instruction
system.cpu05.op_class::SimdFloatCmp                 0      0.00%     63.86% # Class of executed instruction
system.cpu05.op_class::SimdFloatCvt                 0      0.00%     63.86% # Class of executed instruction
system.cpu05.op_class::SimdFloatDiv                 0      0.00%     63.86% # Class of executed instruction
system.cpu05.op_class::SimdFloatMisc                0      0.00%     63.86% # Class of executed instruction
system.cpu05.op_class::SimdFloatMult                0      0.00%     63.86% # Class of executed instruction
system.cpu05.op_class::SimdFloatMultAcc             0      0.00%     63.86% # Class of executed instruction
system.cpu05.op_class::SimdFloatSqrt                0      0.00%     63.86% # Class of executed instruction
system.cpu05.op_class::SimdAes                      0      0.00%     63.86% # Class of executed instruction
system.cpu05.op_class::SimdAesMix                   0      0.00%     63.86% # Class of executed instruction
system.cpu05.op_class::SimdSha1Hash                 0      0.00%     63.86% # Class of executed instruction
system.cpu05.op_class::SimdSha1Hash2                0      0.00%     63.86% # Class of executed instruction
system.cpu05.op_class::SimdSha256Hash               0      0.00%     63.86% # Class of executed instruction
system.cpu05.op_class::SimdSha256Hash2              0      0.00%     63.86% # Class of executed instruction
system.cpu05.op_class::SimdShaSigma2                0      0.00%     63.86% # Class of executed instruction
system.cpu05.op_class::SimdShaSigma3                0      0.00%     63.86% # Class of executed instruction
system.cpu05.op_class::MemRead                   1148     24.45%     88.31% # Class of executed instruction
system.cpu05.op_class::MemWrite                   537     11.44%     99.74% # Class of executed instruction
system.cpu05.op_class::FloatMemRead                 0      0.00%     99.74% # Class of executed instruction
system.cpu05.op_class::FloatMemWrite               12      0.26%    100.00% # Class of executed instruction
system.cpu05.op_class::IprAccess                    0      0.00%    100.00% # Class of executed instruction
system.cpu05.op_class::InstPrefetch                 0      0.00%    100.00% # Class of executed instruction
system.cpu05.op_class::total                     4695                       # Class of executed instruction
system.cpu05.pwrStateClkGateDist::samples            1                       # Distribution of time spent in the clock gated state
system.cpu05.pwrStateClkGateDist::mean       75109500                       # Distribution of time spent in the clock gated state
system.cpu05.pwrStateClkGateDist::1000-5e+10            1    100.00%    100.00% # Distribution of time spent in the clock gated state
system.cpu05.pwrStateClkGateDist::min_value     75109500                       # Distribution of time spent in the clock gated state
system.cpu05.pwrStateClkGateDist::max_value     75109500                       # Distribution of time spent in the clock gated state
system.cpu05.pwrStateClkGateDist::total             1                       # Distribution of time spent in the clock gated state
system.cpu05.pwrStateResidencyTicks::ON     449291500                       # Cumulative time (in ticks) in various power states
system.cpu05.pwrStateResidencyTicks::CLK_GATED     75109500                       # Cumulative time (in ticks) in various power states
system.cpu06.Branches                             879                       # Number of branches fetched
system.cpu06.committedInsts                      4646                       # Number of instructions committed
system.cpu06.committedOps                        4652                       # Number of ops (including micro ops) committed
system.cpu06.dtb.accesses                           0                       # DTB accesses
system.cpu06.dtb.hits                               0                       # DTB hits
system.cpu06.dtb.misses                             0                       # DTB misses
system.cpu06.dtb.pwrStateResidencyTicks::UNDEFINED    524401000                       # Cumulative time (in ticks) in various power states
system.cpu06.dtb.read_accesses                      0                       # DTB read accesses
system.cpu06.dtb.read_hits                          0                       # DTB read hits
system.cpu06.dtb.read_misses                        0                       # DTB read misses
system.cpu06.dtb.write_accesses                     0                       # DTB write accesses
system.cpu06.dtb.write_hits                         0                       # DTB write hits
system.cpu06.dtb.write_misses                       0                       # DTB write misses
system.cpu06.idle_fraction                   0.981644                       # Percentage of idle cycles
system.cpu06.itb.accesses                           0                       # DTB accesses
system.cpu06.itb.hits                               0                       # DTB hits
system.cpu06.itb.misses                             0                       # DTB misses
system.cpu06.itb.pwrStateResidencyTicks::UNDEFINED    524401000                       # Cumulative time (in ticks) in various power states
system.cpu06.itb.read_accesses                      0                       # DTB read accesses
system.cpu06.itb.read_hits                          0                       # DTB read hits
system.cpu06.itb.read_misses                        0                       # DTB read misses
system.cpu06.itb.write_accesses                     0                       # DTB write accesses
system.cpu06.itb.write_hits                         0                       # DTB write hits
system.cpu06.itb.write_misses                       0                       # DTB write misses
system.cpu06.not_idle_fraction               0.018356                       # Percentage of non-idle cycles
system.cpu06.numCycles                        1048801                       # number of cpu cycles simulated
system.cpu06.numPwrStateTransitions                 2                       # Number of power state transitions
system.cpu06.numWorkItemsCompleted                  0                       # number of work items this cpu completed
system.cpu06.numWorkItemsStarted                    0                       # number of work items this cpu started
system.cpu06.num_busy_cycles             19251.983607                       # Number of busy cycles
system.cpu06.num_conditional_control_insts          445                       # number of instructions that are conditional controls
system.cpu06.num_fp_alu_accesses                   12                       # Number of float alu accesses
system.cpu06.num_fp_insts                          12                       # number of float instructions
system.cpu06.num_fp_register_reads                 12                       # number of times the floating registers were read
system.cpu06.num_fp_register_writes                 0                       # number of times the floating registers were written
system.cpu06.num_func_calls                       434                       # number of times a function call or return occured
system.cpu06.num_idle_cycles             1029549.016393                       # Number of idle cycles
system.cpu06.num_int_alu_accesses                4555                       # Number of integer alu accesses
system.cpu06.num_int_insts                       4555                       # number of integer instructions
system.cpu06.num_int_register_reads              5252                       # number of times the integer registers were read
system.cpu06.num_int_register_writes             3380                       # number of times the integer registers were written
system.cpu06.num_load_insts                      1133                       # Number of load instructions
system.cpu06.num_mem_refs                        1681                       # number of memory refs
system.cpu06.num_store_insts                      548                       # Number of store instructions
system.cpu06.num_vec_alu_accesses                   0                       # Number of vector alu accesses
system.cpu06.num_vec_insts                          0                       # number of vector instructions
system.cpu06.num_vec_register_reads                 0                       # number of times the vector registers were read
system.cpu06.num_vec_register_writes                0                       # number of times the vector registers were written
system.cpu06.op_class::No_OpClass                  10      0.21%      0.21% # Class of executed instruction
system.cpu06.op_class::IntAlu                    2960     63.60%     63.82% # Class of executed instruction
system.cpu06.op_class::IntMult                      1      0.02%     63.84% # Class of executed instruction
system.cpu06.op_class::IntDiv                       2      0.04%     63.88% # Class of executed instruction
system.cpu06.op_class::FloatAdd                     0      0.00%     63.88% # Class of executed instruction
system.cpu06.op_class::FloatCmp                     0      0.00%     63.88% # Class of executed instruction
system.cpu06.op_class::FloatCvt                     0      0.00%     63.88% # Class of executed instruction
system.cpu06.op_class::FloatMult                    0      0.00%     63.88% # Class of executed instruction
system.cpu06.op_class::FloatMultAcc                 0      0.00%     63.88% # Class of executed instruction
system.cpu06.op_class::FloatDiv                     0      0.00%     63.88% # Class of executed instruction
system.cpu06.op_class::FloatMisc                    0      0.00%     63.88% # Class of executed instruction
system.cpu06.op_class::FloatSqrt                    0      0.00%     63.88% # Class of executed instruction
system.cpu06.op_class::SimdAdd                      0      0.00%     63.88% # Class of executed instruction
system.cpu06.op_class::SimdAddAcc                   0      0.00%     63.88% # Class of executed instruction
system.cpu06.op_class::SimdAlu                      0      0.00%     63.88% # Class of executed instruction
system.cpu06.op_class::SimdCmp                      0      0.00%     63.88% # Class of executed instruction
system.cpu06.op_class::SimdCvt                      0      0.00%     63.88% # Class of executed instruction
system.cpu06.op_class::SimdMisc                     0      0.00%     63.88% # Class of executed instruction
system.cpu06.op_class::SimdMult                     0      0.00%     63.88% # Class of executed instruction
system.cpu06.op_class::SimdMultAcc                  0      0.00%     63.88% # Class of executed instruction
system.cpu06.op_class::SimdShift                    0      0.00%     63.88% # Class of executed instruction
system.cpu06.op_class::SimdShiftAcc                 0      0.00%     63.88% # Class of executed instruction
system.cpu06.op_class::SimdSqrt                     0      0.00%     63.88% # Class of executed instruction
system.cpu06.op_class::SimdFloatAdd                 0      0.00%     63.88% # Class of executed instruction
system.cpu06.op_class::SimdFloatAlu                 0      0.00%     63.88% # Class of executed instruction
system.cpu06.op_class::SimdFloatCmp                 0      0.00%     63.88% # Class of executed instruction
system.cpu06.op_class::SimdFloatCvt                 0      0.00%     63.88% # Class of executed instruction
system.cpu06.op_class::SimdFloatDiv                 0      0.00%     63.88% # Class of executed instruction
system.cpu06.op_class::SimdFloatMisc                0      0.00%     63.88% # Class of executed instruction
system.cpu06.op_class::SimdFloatMult                0      0.00%     63.88% # Class of executed instruction
system.cpu06.op_class::SimdFloatMultAcc             0      0.00%     63.88% # Class of executed instruction
system.cpu06.op_class::SimdFloatSqrt                0      0.00%     63.88% # Class of executed instruction
system.cpu06.op_class::SimdAes                      0      0.00%     63.88% # Class of executed instruction
system.cpu06.op_class::SimdAesMix                   0      0.00%     63.88% # Class of executed instruction
system.cpu06.op_class::SimdSha1Hash                 0      0.00%     63.88% # Class of executed instruction
system.cpu06.op_class::SimdSha1Hash2                0      0.00%     63.88% # Class of executed instruction
system.cpu06.op_class::SimdSha256Hash               0      0.00%     63.88% # Class of executed instruction
system.cpu06.op_class::SimdSha256Hash2              0      0.00%     63.88% # Class of executed instruction
system.cpu06.op_class::SimdShaSigma2                0      0.00%     63.88% # Class of executed instruction
system.cpu06.op_class::SimdShaSigma3                0      0.00%     63.88% # Class of executed instruction
system.cpu06.op_class::MemRead                   1137     24.43%     88.31% # Class of executed instruction
system.cpu06.op_class::MemWrite                   532     11.43%     99.74% # Class of executed instruction
system.cpu06.op_class::FloatMemRead                 0      0.00%     99.74% # Class of executed instruction
system.cpu06.op_class::FloatMemWrite               12      0.26%    100.00% # Class of executed instruction
system.cpu06.op_class::IprAccess                    0      0.00%    100.00% # Class of executed instruction
system.cpu06.op_class::InstPrefetch                 0      0.00%    100.00% # Class of executed instruction
system.cpu06.op_class::total                     4654                       # Class of executed instruction
system.cpu06.pwrStateClkGateDist::samples            1                       # Distribution of time spent in the clock gated state
system.cpu06.pwrStateClkGateDist::mean       67830500                       # Distribution of time spent in the clock gated state
system.cpu06.pwrStateClkGateDist::1000-5e+10            1    100.00%    100.00% # Distribution of time spent in the clock gated state
system.cpu06.pwrStateClkGateDist::min_value     67830500                       # Distribution of time spent in the clock gated state
[...]
system.ruby.network.int_links39.credit_link.pwrStateResidencyTicks::UNDEFINED    524401000                       # Cumulative time (in ticks) in various power states
system.ruby.network.int_links39.network_link.pwrStateResidencyTicks::UNDEFINED    524401000                       # Cumulative time (in ticks) in various power states
system.ruby.network.int_links40.credit_link.pwrStateResidencyTicks::UNDEFINED    524401000                       # Cumulative time (in ticks) in various power states
system.ruby.network.int_links40.network_link.pwrStateResidencyTicks::UNDEFINED    524401000                       # Cumulative time (in ticks) in various power states
system.ruby.network.int_links41.credit_link.pwrStateResidencyTicks::UNDEFINED    524401000                       # Cumulative time (in ticks) in various power states
system.ruby.network.int_links41.network_link.pwrStateResidencyTicks::UNDEFINED    524401000                       # Cumulative time (in ticks) in various power states
system.ruby.network.int_links42.credit_link.pwrStateResidencyTicks::UNDEFINED    524401000                       # Cumulative time (in ticks) in various power states
system.ruby.network.int_links42.network_link.pwrStateResidencyTicks::UNDEFINED    524401000                       # Cumulative time (in ticks) in various power states
system.ruby.network.int_links43.credit_link.pwrStateResidencyTicks::UNDEFINED    524401000                       # Cumulative time (in ticks) in various power states
system.ruby.network.int_links43.network_link.pwrStateResidencyTicks::UNDEFINED    524401000                       # Cumulative time (in ticks) in various power states
system.ruby.network.int_links44.credit_link.pwrStateResidencyTicks::UNDEFINED    524401000                       # Cumulative time (in ticks) in various power states
system.ruby.network.int_links44.network_link.pwrStateResidencyTicks::UNDEFINED    524401000                       # Cumulative time (in ticks) in various power states
system.ruby.network.int_links45.credit_link.pwrStateResidencyTicks::UNDEFINED    524401000                       # Cumulative time (in ticks) in various power states
system.ruby.network.int_links45.network_link.pwrStateResidencyTicks::UNDEFINED    524401000                       # Cumulative time (in ticks) in various power states
system.ruby.network.int_links46.credit_link.pwrStateResidencyTicks::UNDEFINED    524401000                       # Cumulative time (in ticks) in various power states
system.ruby.network.int_links46.network_link.pwrStateResidencyTicks::UNDEFINED    524401000                       # Cumulative time (in ticks) in various power states
system.ruby.network.int_links47.credit_link.pwrStateResidencyTicks::UNDEFINED    524401000                       # Cumulative time (in ticks) in various power states
system.ruby.network.int_links47.network_link.pwrStateResidencyTicks::UNDEFINED    524401000                       # Cumulative time (in ticks) in various power states
system.ruby.network.netifs00.pwrStateResidencyTicks::UNDEFINED    524401000                       # Cumulative time (in ticks) in various power states
system.ruby.network.netifs01.pwrStateResidencyTicks::UNDEFINED    524401000                       # Cumulative time (in ticks) in various power states
system.ruby.network.netifs02.pwrStateResidencyTicks::UNDEFINED    524401000                       # Cumulative time (in ticks) in various power states
system.ruby.network.netifs03.pwrStateResidencyTicks::UNDEFINED    524401000                       # Cumulative time (in ticks) in various power states
system.ruby.network.netifs04.pwrStateResidencyTicks::UNDEFINED    524401000                       # Cumulative time (in ticks) in various power states
system.ruby.network.netifs05.pwrStateResidencyTicks::UNDEFINED    524401000                       # Cumulative time (in ticks) in various power states
system.ruby.network.netifs06.pwrStateResidencyTicks::UNDEFINED    524401000                       # Cumulative time (in ticks) in various power states
system.ruby.network.netifs07.pwrStateResidencyTicks::UNDEFINED    524401000                       # Cumulative time (in ticks) in various power states
system.ruby.network.netifs08.pwrStateResidencyTicks::UNDEFINED    524401000                       # Cumulative time (in ticks) in various power states
system.ruby.network.netifs09.pwrStateResidencyTicks::UNDEFINED    524401000                       # Cumulative time (in ticks) in various power states
system.ruby.network.netifs10.pwrStateResidencyTicks::UNDEFINED    524401000                       # Cumulative time (in ticks) in various power states
system.ruby.network.netifs11.pwrStateResidencyTicks::UNDEFINED    524401000                       # Cumulative time (in ticks) in various power states
system.ruby.network.netifs12.pwrStateResidencyTicks::UNDEFINED    524401000                       # Cumulative time (in ticks) in various power states
system.ruby.network.netifs13.pwrStateResidencyTicks::UNDEFINED    524401000                       # Cumulative time (in ticks) in various power states
system.ruby.network.netifs14.pwrStateResidencyTicks::UNDEFINED    524401000                       # Cumulative time (in ticks) in various power states
system.ruby.network.netifs15.pwrStateResidencyTicks::UNDEFINED    524401000                       # Cumulative time (in ticks) in various power states
system.ruby.network.netifs16.pwrStateResidencyTicks::UNDEFINED    524401000                       # Cumulative time (in ticks) in various power states
system.ruby.network.netifs17.pwrStateResidencyTicks::UNDEFINED    524401000                       # Cumulative time (in ticks) in various power states
system.ruby.network.netifs18.pwrStateResidencyTicks::UNDEFINED    524401000                       # Cumulative time (in ticks) in various power states
system.ruby.network.netifs19.pwrStateResidencyTicks::UNDEFINED    524401000                       # Cumulative time (in ticks) in various power states
system.ruby.network.netifs20.pwrStateResidencyTicks::UNDEFINED    524401000                       # Cumulative time (in ticks) in various power states
system.ruby.network.netifs21.pwrStateResidencyTicks::UNDEFINED    524401000                       # Cumulative time (in ticks) in various power states
system.ruby.network.netifs22.pwrStateResidencyTicks::UNDEFINED    524401000                       # Cumulative time (in ticks) in various power states
system.ruby.network.netifs23.pwrStateResidencyTicks::UNDEFINED    524401000                       # Cumulative time (in ticks) in various power states
system.ruby.network.netifs24.pwrStateResidencyTicks::UNDEFINED    524401000                       # Cumulative time (in ticks) in various power states
system.ruby.network.netifs25.pwrStateResidencyTicks::UNDEFINED    524401000                       # Cumulative time (in ticks) in various power states
system.ruby.network.netifs26.pwrStateResidencyTicks::UNDEFINED    524401000                       # Cumulative time (in ticks) in various power states
system.ruby.network.netifs27.pwrStateResidencyTicks::UNDEFINED    524401000                       # Cumulative time (in ticks) in various power states
system.ruby.network.netifs28.pwrStateResidencyTicks::UNDEFINED    524401000                       # Cumulative time (in ticks) in various power states
system.ruby.network.netifs29.pwrStateResidencyTicks::UNDEFINED    524401000                       # Cumulative time (in ticks) in various power states
system.ruby.network.netifs30.pwrStateResidencyTicks::UNDEFINED    524401000                       # Cumulative time (in ticks) in various power states
system.ruby.network.netifs31.pwrStateResidencyTicks::UNDEFINED    524401000                       # Cumulative time (in ticks) in various power states
system.ruby.network.netifs32.pwrStateResidencyTicks::UNDEFINED    524401000                       # Cumulative time (in ticks) in various power states
system.ruby.network.netifs33.pwrStateResidencyTicks::UNDEFINED    524401000                       # Cumulative time (in ticks) in various power states
system.ruby.network.netifs34.pwrStateResidencyTicks::UNDEFINED    524401000                       # Cumulative time (in ticks) in various power states
system.ruby.network.netifs35.pwrStateResidencyTicks::UNDEFINED    524401000                       # Cumulative time (in ticks) in various power states
system.ruby.network.packet_network_latency |      223422                       |      249561                       |       55177                      
system.ruby.network.packet_queueing_latency |      120107                       |       30429                       |        6565                      
system.ruby.network.packets_injected     |       19464     42.68%     42.68% |       19661     43.11%     85.78% |        6484     14.22%    100.00%
system.ruby.network.packets_injected::total        45609                      
system.ruby.network.packets_received     |       19464     42.68%     42.68% |       19661     43.11%     85.78% |        6484     14.22%    100.00%
system.ruby.network.packets_received::total        45609                      
system.ruby.network.pwrStateResidencyTicks::UNDEFINED    524401000                       # Cumulative time (in ticks) in various power states
system.ruby.network.routers00.buffer_reads        92940                      
system.ruby.network.routers00.buffer_writes        92940                      
system.ruby.network.routers00.crossbar_activity        92940                      
system.ruby.network.routers00.pwrStateResidencyTicks::UNDEFINED    524401000                       # Cumulative time (in ticks) in various power states
system.ruby.network.routers00.sw_input_arbiter_activity        92974                      
system.ruby.network.routers00.sw_output_arbiter_activity        92940                      
system.ruby.network.routers01.buffer_reads        39346                      
system.ruby.network.routers01.buffer_writes        39346                      
system.ruby.network.routers01.crossbar_activity        39346                      
system.ruby.network.routers01.pwrStateResidencyTicks::UNDEFINED    524401000                       # Cumulative time (in ticks) in various power states
system.ruby.network.routers01.sw_input_arbiter_activity        39367                      
system.ruby.network.routers01.sw_output_arbiter_activity        39346                      
system.ruby.network.routers02.buffer_reads        26634                      
system.ruby.network.routers02.buffer_writes        26634                      
system.ruby.network.routers02.crossbar_activity        26634                      
system.ruby.network.routers02.pwrStateResidencyTicks::UNDEFINED    524401000                       # Cumulative time (in ticks) in various power states
system.ruby.network.routers02.sw_input_arbiter_activity        26655                      
system.ruby.network.routers02.sw_output_arbiter_activity        26634                      
system.ruby.network.routers03.buffer_reads        15971                      
system.ruby.network.routers03.buffer_writes        15971                      
system.ruby.network.routers03.crossbar_activity        15971                      
system.ruby.network.routers03.pwrStateResidencyTicks::UNDEFINED    524401000                       # Cumulative time (in ticks) in various power states
system.ruby.network.routers03.sw_input_arbiter_activity        15981                      
system.ruby.network.routers03.sw_output_arbiter_activity        15971                      
system.ruby.network.routers04.buffer_reads        54073                      
system.ruby.network.routers04.buffer_writes        54073                      
system.ruby.network.routers04.crossbar_activity        54073                      
system.ruby.network.routers04.pwrStateResidencyTicks::UNDEFINED    524401000                       # Cumulative time (in ticks) in various power states
system.ruby.network.routers04.sw_input_arbiter_activity        54077                      
system.ruby.network.routers04.sw_output_arbiter_activity        54073                      
system.ruby.network.routers05.buffer_reads        20067                      
system.ruby.network.routers05.buffer_writes        20067                      
system.ruby.network.routers05.crossbar_activity        20067                      
system.ruby.network.routers05.pwrStateResidencyTicks::UNDEFINED    524401000                       # Cumulative time (in ticks) in various power states
system.ruby.network.routers05.sw_input_arbiter_activity        20076                      
system.ruby.network.routers05.sw_output_arbiter_activity        20067                      
system.ruby.network.routers06.buffer_reads        14880                      
system.ruby.network.routers06.buffer_writes        14880                      
system.ruby.network.routers06.crossbar_activity        14880                      
system.ruby.network.routers06.pwrStateResidencyTicks::UNDEFINED    524401000                       # Cumulative time (in ticks) in various power states
system.ruby.network.routers06.sw_input_arbiter_activity        14900                      
system.ruby.network.routers06.sw_output_arbiter_activity        14880                      
system.ruby.network.routers07.buffer_reads        12144                      
system.ruby.network.routers07.buffer_writes        12144                      
system.ruby.network.routers07.crossbar_activity        12144                      
system.ruby.network.routers07.pwrStateResidencyTicks::UNDEFINED    524401000                       # Cumulative time (in ticks) in various power states
system.ruby.network.routers07.sw_input_arbiter_activity        12152                      
system.ruby.network.routers07.sw_output_arbiter_activity        12144                      
system.ruby.network.routers08.buffer_reads        36687                      
system.ruby.network.routers08.buffer_writes        36687                      
system.ruby.network.routers08.crossbar_activity        36687                      
system.ruby.network.routers08.pwrStateResidencyTicks::UNDEFINED    524401000                       # Cumulative time (in ticks) in various power states
system.ruby.network.routers08.sw_input_arbiter_activity        36697                      
system.ruby.network.routers08.sw_output_arbiter_activity        36687                      
system.ruby.network.routers09.buffer_reads        18081                      
system.ruby.network.routers09.buffer_writes        18081                      
system.ruby.network.routers09.crossbar_activity        18081                      
system.ruby.network.routers09.pwrStateResidencyTicks::UNDEFINED    524401000                       # Cumulative time (in ticks) in various power states
system.ruby.network.routers09.sw_input_arbiter_activity        18087                      
system.ruby.network.routers09.sw_output_arbiter_activity        18081                      
system.ruby.network.routers10.buffer_reads        17233                      
system.ruby.network.routers10.buffer_writes        17233                      
system.ruby.network.routers10.crossbar_activity        17233                      
system.ruby.network.routers10.pwrStateResidencyTicks::UNDEFINED    524401000                       # Cumulative time (in ticks) in various power states
system.ruby.network.routers10.sw_input_arbiter_activity        17251                      
system.ruby.network.routers10.sw_output_arbiter_activity        17233                      
system.ruby.network.routers11.buffer_reads        13168                      
system.ruby.network.routers11.buffer_writes        13168                      
system.ruby.network.routers11.crossbar_activity        13168                      
system.ruby.network.routers11.pwrStateResidencyTicks::UNDEFINED    524401000                       # Cumulative time (in ticks) in various power states
system.ruby.network.routers11.sw_input_arbiter_activity        13174                      
system.ruby.network.routers11.sw_output_arbiter_activity        13168                      
system.ruby.network.routers12.buffer_reads        24505                      
system.ruby.network.routers12.buffer_writes        24505                      
system.ruby.network.routers12.crossbar_activity        24505                      
system.ruby.network.routers12.pwrStateResidencyTicks::UNDEFINED    524401000                       # Cumulative time (in ticks) in various power states
system.ruby.network.routers12.sw_input_arbiter_activity        24506                      
system.ruby.network.routers12.sw_output_arbiter_activity        24505                      
system.ruby.network.routers13.buffer_reads        19418                      
system.ruby.network.routers13.buffer_writes        19418                      
system.ruby.network.routers13.crossbar_activity        19418                      
system.ruby.network.routers13.pwrStateResidencyTicks::UNDEFINED    524401000                       # Cumulative time (in ticks) in various power states
system.ruby.network.routers13.sw_input_arbiter_activity        19427                      
system.ruby.network.routers13.sw_output_arbiter_activity        19418                      
system.ruby.network.routers14.buffer_reads        15485                      
system.ruby.network.routers14.buffer_writes        15485                      
system.ruby.network.routers14.crossbar_activity        15485                      
system.ruby.network.routers14.pwrStateResidencyTicks::UNDEFINED    524401000                       # Cumulative time (in ticks) in various power states
system.ruby.network.routers14.sw_input_arbiter_activity        15495                      
system.ruby.network.routers14.sw_output_arbiter_activity        15485                      
system.ruby.network.routers15.buffer_reads        11656                      
system.ruby.network.routers15.buffer_writes        11656                      
system.ruby.network.routers15.crossbar_activity        11656                      
system.ruby.network.routers15.pwrStateResidencyTicks::UNDEFINED    524401000                       # Cumulative time (in ticks) in various power states
system.ruby.network.routers15.sw_input_arbiter_activity        11663                      
system.ruby.network.routers15.sw_output_arbiter_activity        11656                      
system.ruby.outstanding_req_hist_seqr::bucket_size            1                      
system.ruby.outstanding_req_hist_seqr::max_bucket            9                      
system.ruby.outstanding_req_hist_seqr::samples       255961                      
system.ruby.outstanding_req_hist_seqr::mean            1                      
system.ruby.outstanding_req_hist_seqr::gmean            1                      
system.ruby.outstanding_req_hist_seqr    |           0      0.00%      0.00% |      255961    100.00%    100.00% |           0      0.00%    100.00% |           0      0.00%    100.00% |           0      0.00%    100.00% |           0      0.00%    100.00% |           0      0.00%    100.00% |           0      0.00%    100.00% |           0      0.00%    100.00% |           0      0.00%    100.00%
system.ruby.outstanding_req_hist_seqr::total       255961                      
system.ruby.pwrStateResidencyTicks::UNDEFINED    524401000                       # Cumulative time (in ticks) in various power states
system.sys_port_proxy.pwrStateResidencyTicks::UNDEFINED    524401000                       # Cumulative time (in ticks) in various power states
system.voltage_domain.voltage                       1                       # Voltage in Volts

---------- End Simulation Statistics   ----------
