
---------- Begin Simulation Statistics ----------
final_tick                                  482182500                       # Number of ticks from beginning of simulation (restored from checkpoints and never reset)
host_inst_rate                                  24870                       # Simulator instruction rate (inst/s)
host_mem_usage                                5160812                       # Number of bytes of host memory used
host_op_rate                                    24926                       # Simulator op (including micro ops) rate (op/s)
host_seconds                                     6.73                       # Real time elapsed on the host
host_tick_rate                               71643700                       # Simulator tick rate (ticks/s)
sim_freq                                 1000000000000                       # Frequency of simulated ticks
sim_insts                                      167379                       # Number of instructions simulated
sim_ops                                        167761                       # Number of ops (including micro ops) simulated
sim_seconds                                  0.000482                       # Number of seconds simulated
sim_ticks                                   482182500                       # Number of ticks simulated
system.clk_domain.clock                          1000                       # Clock period in ticks
system.cpu00.Branches                           22351                       # Number of branches fetched
system.cpu00.committedInsts                    100001                       # Number of instructions committed
system.cpu00.committedOps                      100294                       # Number of ops (including micro ops) committed
system.cpu00.dtb.accesses                           0                       # DTB accesses
system.cpu00.dtb.hits                               0                       # DTB hits
system.cpu00.dtb.misses                             0                       # DTB misses
system.cpu00.dtb.pwrStateResidencyTicks::UNDEFINED    482182500                       # Cumulative time (in ticks) in various power states
system.cpu00.dtb.read_accesses                      0                       # DTB read accesses
system.cpu00.dtb.read_hits                          0                       # DTB read hits
system.cpu00.dtb.read_misses                        0                       # DTB read misses
system.cpu00.dtb.write_accesses                     0                       # DTB write accesses
system.cpu00.dtb.write_hits                         0                       # DTB write hits
system.cpu00.dtb.write_misses                       0                       # DTB write misses
system.cpu00.idle_fraction                   0.005510                       # Percentage of idle cycles
system.cpu00.itb.accesses                           0                       # DTB accesses
system.cpu00.itb.hits                               0                       # DTB hits
system.cpu00.itb.misses                             0                       # DTB misses
system.cpu00.itb.pwrStateResidencyTicks::UNDEFINED    482182500                       # Cumulative time (in ticks) in various power states
system.cpu00.itb.read_accesses                      0                       # DTB read accesses
system.cpu00.itb.read_hits                          0                       # DTB read hits
system.cpu00.itb.read_misses                        0                       # DTB read misses
system.cpu00.itb.write_accesses                     0                       # DTB write accesses
system.cpu00.itb.write_hits                         0                       # DTB write hits
system.cpu00.itb.write_misses                       0                       # DTB write misses
system.cpu00.not_idle_fraction               0.994490                       # Percentage of non-idle cycles
system.cpu00.numCycles                         964365                       # number of cpu cycles simulated
system.cpu00.numPwrStateTransitions                 2                       # Number of power state transitions
system.cpu00.numWorkItemsCompleted                  0                       # number of work items this cpu completed
system.cpu00.numWorkItemsStarted                    0                       # number of work items this cpu started
system.cpu00.num_busy_cycles             959051.000011                       # Number of busy cycles
system.cpu00.num_conditional_control_insts        15929                       # number of instructions that are conditional controls
system.cpu00.num_fp_alu_accesses                   12                       # Number of float alu accesses
system.cpu00.num_fp_insts                          12                       # number of float instructions
system.cpu00.num_fp_register_reads                 12                       # number of times the floating registers were read
system.cpu00.num_fp_register_writes                 0                       # number of times the floating registers were written
system.cpu00.num_func_calls                      6422                       # number of times a function call or return occured
system.cpu00.num_idle_cycles              5313.999989                       # Number of idle cycles
system.cpu00.num_int_alu_accesses               98833                       # Number of integer alu accesses
system.cpu00.num_int_insts                      98833                       # number of integer instructions
system.cpu00.num_int_register_reads            120837                       # number of times the integer registers were read
system.cpu00.num_int_register_writes            64472                       # number of times the integer registers were written
system.cpu00.num_load_insts                     20284                       # Number of load instructions
system.cpu00.num_mem_refs                       36549                       # number of memory refs
system.cpu00.num_store_insts                    16265                       # Number of store instructions
system.cpu00.num_vec_alu_accesses                   0                       # Number of vector alu accesses
system.cpu00.num_vec_insts                          0                       # number of vector instructions
system.cpu00.num_vec_register_reads                 0                       # number of times the vector registers were read
system.cpu00.num_vec_register_writes                0                       # number of times the vector registers were written
system.cpu00.op_class::No_OpClass                 860      0.86%      0.86% # Class of executed instruction
system.cpu00.op_class::IntAlu                   62922     62.69%     63.55% # Class of executed instruction
system.cpu00.op_class::IntMult                     30      0.03%     63.58% # Class of executed instruction
system.cpu00.op_class::IntDiv                       6      0.01%     63.58% # Class of executed instruction
system.cpu00.op_class::FloatAdd                     0      0.00%     63.58% # Class of executed instruction
system.cpu00.op_class::FloatCmp                     0      0.00%     63.58% # Class of executed instruction
system.cpu00.op_class::FloatCvt                     0      0.00%     63.58% # Class of executed instruction
system.cpu00.op_class::FloatMult                    0      0.00%     63.58% # Class of executed instruction
system.cpu00.op_class::FloatMultAcc                 0      0.00%     63.58% # Class of executed instruction
system.cpu00.op_class::FloatDiv                     0      0.00%     63.58% # Class of executed instruction
system.cpu00.op_class::FloatMisc                    0      0.00%     63.58% # Class of executed instruction
system.cpu00.op_class::FloatSqrt                    0      0.00%     63.58% # Class of executed instruction
system.cpu00.op_class::SimdAdd                      0      0.00%     63.58% # Class of executed instruction
system.cpu00.op_class::SimdAddAcc                   0      0.00%     63.58% # Class of executed instruction
system.cpu00.op_class::SimdAlu                      0      0.00%     63.58% # Class of executed instruction
system.cpu00.op_class::SimdCmp                      0      0.00%     63.58% # Class of executed instruction
system.cpu00.op_class::SimdCvt                      0      0.00%     63.58% # Class of executed instruction
system.cpu00.op_class::SimdMisc                     0      0.00%     63.58% # Class of executed instruction
system.cpu00.op_class::SimdMult                     0      0.00%     63.58% # Class of executed instruction
system.cpu00.op_class::SimdMultAcc                  0      0.00%     63.58% # Class of executed instruction
system.cpu00.op_class::SimdShift                    0      0.00%     63.58% # Class of executed instruction
system.cpu00.op_class::SimdShiftAcc                 0      0.00%     63.58% # Class of executed instruction
system.cpu00.op_class::SimdSqrt                     0      0.00%     63.58% # Class of executed instruction
system.cpu00.op_class::SimdFloatAdd                 0      0.00%     63.58% # Class of executed instruction
system.cpu00.op_class::SimdFloatAlu                 0      0.00%     63.58% # Class of executed instruction
system.cpu00.op_class::SimdFloatCmp                 0      0.00%     63.58% # Class of executed instruction
system.cpu00.op_class::SimdFloatCvt                 0      0.00%     63.58% # Class of executed instruction
system.cpu00.op_class::SimdFloatDiv                 0      0.00%     63.58% # Class of executed instruction
system.cpu00.op_class::SimdFloatMisc                0      0.00%     63.58% # Class of executed instruction
system.cpu00.op_class::SimdFloatMult                0      0.00%     63.58% # Class of executed instruction
system.cpu00.op_class::SimdFloatMultAcc             0      0.00%     63.58% # Class of executed instruction
system.cpu00.op_class::SimdFloatSqrt                0      0.00%     63.58% # Class of executed instruction
system.cpu00.op_class::SimdAes                      0      0.00%     63.58% # Class of executed instruction
system.cpu00.op_class::SimdAesMix                   0      0.00%     63.58% # Class of executed instruction
system.cpu00.op_class::SimdSha1Hash                 0      0.00%     63.58% # Class of executed instruction
system.cpu00.op_class::SimdSha1Hash2                0      0.00%     63.58% # Class of executed instruction
system.cpu00.op_class::SimdSha256Hash               0      0.00%     63.58% # Class of executed instruction
system.cpu00.op_class::SimdSha256Hash2              0      0.00%     63.58% # Class of executed instruction
system.cpu00.op_class::SimdShaSigma2                0      0.00%     63.58% # Class of executed instruction
system.cpu00.op_class::SimdShaSigma3                0      0.00%     63.58% # Class of executed instruction
system.cpu00.op_class::MemRead                  20569     20.49%     84.08% # Class of executed instruction
system.cpu00.op_class::MemWrite                 15968     15.91%     99.99% # Class of executed instruction
system.cpu00.op_class::FloatMemRead                 0      0.00%     99.99% # Class of executed instruction
system.cpu00.op_class::FloatMemWrite               12      0.01%    100.00% # Class of executed instruction
system.cpu00.op_class::IprAccess                    0      0.00%    100.00% # Class of executed instruction
system.cpu00.op_class::InstPrefetch                 0      0.00%    100.00% # Class of executed instruction
system.cpu00.op_class::total                   100367                       # Class of executed instruction
system.cpu00.pwrStateClkGateDist::samples            1                       # Distribution of time spent in the clock gated state
system.cpu00.pwrStateClkGateDist::mean        2657000                       # Distribution of time spent in the clock gated state
system.cpu00.pwrStateClkGateDist::1000-5e+10            1    100.00%    100.00% # Distribution of time spent in the clock gated state
system.cpu00.pwrStateClkGateDist::min_value      2657000                       # Distribution of time spent in the clock gated state
system.cpu00.pwrStateClkGateDist::max_value      2657000                       # Distribution of time spent in the clock gated state
system.cpu00.pwrStateClkGateDist::total             1                       # Distribution of time spent in the clock gated state
system.cpu00.pwrStateResidencyTicks::ON     479525500                       # Cumulative time (in ticks) in various power states
system.cpu00.pwrStateResidencyTicks::CLK_GATED      2657000                       # Cumulative time (in ticks) in various power states
system.cpu00.workload.numSyscalls                  72                       # Number of system calls
system.cpu01.Branches                             912                       # Number of branches fetched
system.cpu01.committedInsts                      4860                       # Number of instructions committed
system.cpu01.committedOps                        4866                       # Number of ops (including micro ops) committed
system.cpu01.dtb.accesses                           0                       # DTB accesses
system.cpu01.dtb.hits                               0                       # DTB hits
system.cpu01.dtb.misses                             0                       # DTB misses
system.cpu01.dtb.pwrStateResidencyTicks::UNDEFINED    482182500                       # Cumulative time (in ticks) in various power states
system.cpu01.dtb.read_accesses                      0                       # DTB read accesses
system.cpu01.dtb.read_hits                          0                       # DTB read hits
system.cpu01.dtb.read_misses                        0                       # DTB read misses
system.cpu01.dtb.write_accesses                     0                       # DTB write accesses
system.cpu01.dtb.write_hits                         0                       # DTB write hits
system.cpu01.dtb.write_misses                       0                       # DTB write misses
system.cpu01.idle_fraction                   0.976250                       # Percentage of idle cycles
system.cpu01.itb.accesses                           0                       # DTB accesses
system.cpu01.itb.hits                               0                       # DTB hits
system.cpu01.itb.misses                             0                       # DTB misses
system.cpu01.itb.pwrStateResidencyTicks::UNDEFINED    482182500                       # Cumulative time (in ticks) in various power states
system.cpu01.itb.read_accesses                      0                       # DTB read accesses
system.cpu01.itb.read_hits                          0                       # DTB read hits
system.cpu01.itb.read_misses                        0                       # DTB read misses
system.cpu01.itb.write_accesses                     0                       # DTB write accesses
system.cpu01.itb.write_hits                         0                       # DTB write hits
system.cpu01.itb.write_misses                       0                       # DTB write misses
system.cpu01.not_idle_fraction               0.023750                       # Percentage of non-idle cycles
system.cpu01.numCycles                         964364                       # number of cpu cycles simulated
system.cpu01.numPwrStateTransitions                 2                       # Number of power state transitions
system.cpu01.numWorkItemsCompleted                  0                       # number of work items this cpu completed
system.cpu01.numWorkItemsStarted                    0                       # number of work items this cpu started
system.cpu01.num_busy_cycles             22903.978202                       # Number of busy cycles
system.cpu01.num_conditional_control_insts          477                       # number of instructions that are conditional controls
system.cpu01.num_fp_alu_accesses                   12                       # Number of float alu accesses
system.cpu01.num_fp_insts                          12                       # number of float instructions
system.cpu01.num_fp_register_reads                 12                       # number of times the floating registers were read
system.cpu01.num_fp_register_writes                 0                       # number of times the floating registers were written
system.cpu01.num_func_calls                       435                       # number of times a function call or return occured
system.cpu01.num_idle_cycles             941460.021798                       # Number of idle cycles
system.cpu01.num_int_alu_accesses                4782                       # Number of integer alu accesses
system.cpu01.num_int_insts                       4782                       # number of integer instructions
system.cpu01.num_int_register_reads              5509                       # number of times the integer registers were read
system.cpu01.num_int_register_writes             3547                       # number of times the integer registers were written
system.cpu01.num_load_insts                      1189                       # Number of load instructions
system.cpu01.num_mem_refs                        1762                       # number of memory refs
system.cpu01.num_store_insts                      573                       # Number of store instructions
system.cpu01.num_vec_alu_accesses                   0                       # Number of vector alu accesses
system.cpu01.num_vec_insts                          0                       # number of vector instructions
system.cpu01.num_vec_register_reads                 0                       # number of times the vector registers were read
system.cpu01.num_vec_register_writes                0                       # number of times the vector registers were written
system.cpu01.op_class::No_OpClass                  10      0.21%      0.21% # Class of executed instruction
system.cpu01.op_class::IntAlu                    3093     63.54%     63.74% # Class of executed instruction
system.cpu01.op_class::IntMult                      1      0.02%     63.76% # Class of executed instruction
system.cpu01.op_class::IntDiv                       2      0.04%     63.80% # Class of executed instruction
system.cpu01.op_class::FloatAdd                     0      0.00%     63.80% # Class of executed instruction
system.cpu01.op_class::FloatCmp                     0      0.00%     63.80% # Class of executed instruction
system.cpu01.op_class::FloatCvt                     0      0.00%     63.80% # Class of executed instruction
system.cpu01.op_class::FloatMult                    0      0.00%     63.80% # Class of executed instruction
system.cpu01.op_class::FloatMultAcc                 0      0.00%     63.80% # Class of executed instruction
system.cpu01.op_class::FloatDiv                     0      0.00%     63.80% # Class of executed instruction
system.cpu01.op_class::FloatMisc                    0      0.00%     63.80% # Class of executed instruction
system.cpu01.op_class::FloatSqrt                    0      0.00%     63.80% # Class of executed instruction
system.cpu01.op_class::SimdAdd                      0      0.00%     63.80% # Class of executed instruction
system.cpu01.op_class::SimdAddAcc                   0      0.00%     63.80% # Class of executed instruction
system.cpu01.op_class::SimdAlu                      0      0.00%     63.80% # Class of executed instruction
system.cpu01.op_class::SimdCmp                      0      0.00%     63.80% # Class of executed instruction
system.cpu01.op_class::SimdCvt                      0      0.00%     63.80% # Class of executed instruction
system.cpu01.op_class::SimdMisc                     0      0.00%     63.80% # Class of executed instruction
system.cpu01.op_class::SimdMult                     0      0.00%     63.80% # Class of executed instruction
system.cpu01.op_class::SimdMultAcc                  0      0.00%     63.80% # Class of executed instruction
system.cpu01.op_class::SimdShift                    0      0.00%     63.80% # Class of executed instruction
system.cpu01.op_class::SimdShiftAcc                 0      0.00%     63.80% # Class of executed instruction
system.cpu01.op_class::SimdSqrt                     0      0.00%     63.80% # Class of executed instruction
system.cpu01.op_class::SimdFloatAdd                 0      0.00%     63.80% # Class of executed instruction
system.cpu01.op_class::SimdFloatAlu                 0      0.00%     63.80% # Class of executed instruction
system.cpu01.op_class::SimdFloatCmp                 0      0.00%     63.80% # Class of executed instruction
system.cpu01.op_class::SimdFloatCvt                 0      0.00%     63.80% # Class of executed instruction
system.cpu01.op_class::SimdFloatDiv                 0      0.00%     63.80% # Class of executed instruction
system.cpu01.op_class::SimdFloatMisc                0      0.00%     63.80% # Class of executed instruction
system.cpu01.op_class::SimdFloatMult                0      0.00%     63.80% # Class of executed instruction
system.cpu01.op_class::SimdFloatMultAcc             0      0.00%     63.80% # Class of executed instruction
system.cpu01.op_class::SimdFloatSqrt                0      0.00%     63.80% # Class of executed instruction
system.cpu01.op_class::SimdAes                      0      0.00%     63.80% # Class of executed instruction
system.cpu01.op_class::SimdAesMix                   0      0.00%     63.80% # Class of executed instruction
system.cpu01.op_class::SimdSha1Hash                 0      0.00%     63.80% # Class of executed instruction
system.cpu01.op_class::SimdSha1Hash2                0      0.00%     63.80% # Class of executed instruction
system.cpu01.op_class::SimdSha256Hash               0      0.00%     63.80% # Class of executed instruction
system.cpu01.op_class::SimdSha256Hash2              0      0.00%     63.80% # Class of executed instruction
system.cpu01.op_class::SimdShaSigma2                0      0.00%     63.80% # Class of executed instruction
system.cpu01.op_class::SimdShaSigma3                0      0.00%     63.80% # Class of executed instruction
system.cpu01.op_class::MemRead                   1193     24.51%     88.31% # Class of executed instruction
system.cpu01.op_class::MemWrite                   557     11.44%     99.75% # Class of executed instruction
system.cpu01.op_class::FloatMemRead                 0      0.00%     99.75% # Class of executed instruction
system.cpu01.op_class::FloatMemWrite               12      0.25%    100.00% # Class of executed instruction
system.cpu01.op_class::IprAccess                    0      0.00%    100.00% # Class of executed instruction
system.cpu01.op_class::InstPrefetch                 0      0.00%    100.00% # Class of executed instruction
system.cpu01.op_class::total                     4868                       # Class of executed instruction
system.cpu01.pwrStateClkGateDist::samples            1                       # Distribution of time spent in the clock gated state
system.cpu01.pwrStateClkGateDist::mean       89745000                       # Distribution of time spent in the clock gated state
system.cpu01.pwrStateClkGateDist::1000-5e+10            1    100.00%    100.00% # Distribution of time spent in the clock gated state
system.cpu01.pwrStateClkGateDist::min_value     89745000                       # Distribution of time spent in the clock gated state
system.cpu01.pwrStateClkGateDist::max_value     89745000                       # Distribution of time spent in the clock gated state
system.cpu01.pwrStateClkGateDist::total             1                       # Distribution of time spent in the clock gated state
system.cpu01.pwrStateResidencyTicks::ON     392437500                       # Cumulative time (in ticks) in various power states
system.cpu01.pwrStateResidencyTicks::CLK_GATED     89745000                       # Cumulative time (in ticks) in various power states
system.cpu02.Branches                             910                       # Number of branches fetched
system.cpu02.committedInsts                      4851                       # Number of instructions committed
system.cpu02.committedOps                        4857                       # Number of ops (including micro ops) committed
system.cpu02.dtb.accesses                           0                       # DTB accesses
system.cpu02.dtb.hits                               0                       # DTB hits
system.cpu02.dtb.misses                             0                       # DTB misses
system.cpu02.dtb.pwrStateResidencyTicks::UNDEFINED    482182500                       # Cumulative time (in ticks) in various power states
system.cpu02.dtb.read_accesses                      0                       # DTB read accesses
system.cpu02.dtb.read_hits                          0                       # DTB read hits
system.cpu02.dtb.read_misses                        0                       # DTB read misses
system.cpu02.dtb.write_accesses                     0                       # DTB write accesses
system.cpu02.dtb.write_hits                         0                       # DTB write hits
system.cpu02.dtb.write_misses                       0                       # DTB write misses
system.cpu02.idle_fraction                   0.979574                       # Percentage of idle cycles
system.cpu02.itb.accesses                           0                       # DTB accesses
system.cpu02.itb.hits                               0                       # DTB hits
system.cpu02.itb.misses                             0                       # DTB misses
system.cpu02.itb.pwrStateResidencyTicks::UNDEFINED    482182500                       # Cumulative time (in ticks) in various power states
system.cpu02.itb.read_accesses                      0                       # DTB read accesses
system.cpu02.itb.read_hits                          0                       # DTB read hits
system.cpu02.itb.read_misses                        0                       # DTB read misses
system.cpu02.itb.write_accesses                     0                       # DTB write accesses
system.cpu02.itb.write_hits                         0                       # DTB write hits
system.cpu02.itb.write_misses                       0                       # DTB write misses
system.cpu02.not_idle_fraction               0.020426                       # Percentage of non-idle cycles
system.cpu02.numCycles                         964364                       # number of cpu cycles simulated
system.cpu02.numPwrStateTransitions                 2                       # Number of power state transitions
system.cpu02.numWorkItemsCompleted                  0                       # number of work items this cpu completed
system.cpu02.numWorkItemsStarted                    0                       # number of work items this cpu started
system.cpu02.num_busy_cycles             19697.981533                       # Number of busy cycles
system.cpu02.num_conditional_control_insts          476                       # number of instructions that are conditional controls
system.cpu02.num_fp_alu_accesses                   12                       # Number of float alu accesses
system.cpu02.num_fp_insts                          12                       # number of float instructions
system.cpu02.num_fp_register_reads                 12                       # number of times the floating registers were read
system.cpu02.num_fp_register_writes                 0                       # number of times the floating registers were written
system.cpu02.num_func_calls                       434                       # number of times a function call or return occured
system.cpu02.num_idle_cycles             944666.018467                       # Number of idle cycles
system.cpu02.num_int_alu_accesses                4773                       # Number of integer alu accesses
system.cpu02.num_int_insts                       4773                       # number of integer instructions
system.cpu02.num_int_register_reads              5499                       # number of times the integer registers were read
system.cpu02.num_int_register_writes             3539                       # number of times the integer registers were written
system.cpu02.num_load_insts                      1185                       # Number of load instructions
system.cpu02.num_mem_refs                        1758                       # number of memory refs
system.cpu02.num_store_insts                      573                       # Number of store instructions
system.cpu02.num_vec_alu_accesses                   0                       # Number of vector alu accesses
system.cpu02.num_vec_insts                          0                       # number of vector instructions
system.cpu02.num_vec_register_reads                 0                       # number of times the vector registers were read
system.cpu02.num_vec_register_writes                0                       # number of times the vector registers were written
system.cpu02.op_class::No_OpClass                  10      0.21%      0.21% # Class of executed instruction
system.cpu02.op_class::IntAlu                    3088     63.55%     63.76% # Class of executed instruction
system.cpu02.op_class::IntMult                      1      0.02%     63.78% # Class of executed instruction
system.cpu02.op_class::IntDiv                       2      0.04%     63.82% # Class of executed instruction
system.cpu02.op_class::FloatAdd                     0      0.00%     63.82% # Class of executed instruction
system.cpu02.op_class::FloatCmp                     0      0.00%     63.82% # Class of executed instruction
system.cpu02.op_class::FloatCvt                     0      0.00%     63.82% # Class of executed instruction
system.cpu02.op_class::FloatMult                    0      0.00%     63.82% # Class of executed instruction
system.cpu02.op_class::FloatMultAcc                 0      0.00%     63.82% # Class of executed instruction
system.cpu02.op_class::FloatDiv                     0      0.00%     63.82% # Class of executed instruction
system.cpu02.op_class::FloatMisc                    0      0.00%     63.82% # Class of executed instruction
system.cpu02.op_class::FloatSqrt                    0      0.00%     63.82% # Class of executed instruction
system.cpu02.op_class::SimdAdd                      0      0.00%     63.82% # Class of executed instruction
system.cpu02.op_class::SimdAddAcc                   0      0.00%     63.82% # Class of executed instruction
system.cpu02.op_class::SimdAlu                      0      0.00%     63.82% # Class of executed instruction
system.cpu02.op_class::SimdCmp                      0      0.00%     63.82% # Class of executed instruction
system.cpu02.op_class::SimdCvt                      0      0.00%     63.82% # Class of executed instruction
system.cpu02.op_class::SimdMisc                     0      0.00%     63.82% # Class of executed instruction
system.cpu02.op_class::SimdMult                     0      0.00%     63.82% # Class of executed instruction
system.cpu02.op_class::SimdMultAcc                  0      0.00%     63.82% # Class of executed instruction
system.cpu02.op_class::SimdShift                    0      0.00%     63.82% # Class of executed instruction
system.cpu02.op_class::SimdShiftAcc                 0      0.00%     63.82% # Class of executed instruction
system.cpu02.op_class::SimdSqrt                     0      0.00%     63.82% # Class of executed instruction
system.cpu02.op_class::SimdFloatAdd                 0      0.00%     63.82% # Class of executed instruction
system.cpu02.op_class::SimdFloatAlu                 0      0.00%     63.82% # Class of executed instruction
system.cpu02.op_class::SimdFloatCmp                 0      0.00%     63.82% # Class of executed instruction
system.cpu02.op_class::SimdFloatCvt                 0      0.00%     63.82% # Class of executed instruction
system.cpu02.op_class::SimdFloatDiv                 0      0.00%     63.82% # Class of executed instruction
system.cpu02.op_class::SimdFloatMisc                0      0.00%     63.82% # Class of executed instruction
system.cpu02.op_class::SimdFloatMult                0      0.00%     63.82% # Class of executed instruction
system.cpu02.op_class::SimdFloatMultAcc             0      0.00%     63.82% # Class of executed instruction
system.cpu02.op_class::SimdFloatSqrt                0      0.00%     63.82% # Class of executed instruction
system.cpu02.op_class::SimdAes                      0      0.00%     63.82% # Class of executed instruction
system.cpu02.op_class::SimdAesMix                   0      0.00%     63.82% # Class of executed instruction
system.cpu02.op_class::SimdSha1Hash                 0      0.00%     63.82% # Class of executed instruction
system.cpu02.op_class::SimdSha1Hash2                0      0.00%     63.82% # Class of executed instruction
system.cpu02.op_class::SimdSha256Hash               0      0.00%     63.82% # Class of executed instruction
system.cpu02.op_class::SimdSha256Hash2              0      0.00%     63.82% # Class of executed instruction
system.cpu02.op_class::SimdShaSigma2                0      0.00%     63.82% # Class of executed instruction
system.cpu02.op_class::SimdShaSigma3                0      0.00%     63.82% # Class of executed instruction
system.cpu02.op_class::MemRead                   1189     24.47%     88.29% # Class of executed instruction
system.cpu02.op_class::MemWrite                   557     11.46%     99.75% # Class of executed instruction
system.cpu02.op_class::FloatMemRead                 0      0.00%     99.75% # Class of executed instruction
system.cpu02.op_class::FloatMemWrite               12      0.25%    100.00% # Class of executed instruction
system.cpu02.op_class::IprAccess                    0      0.00%    100.00% # Class of executed instruction
system.cpu02.op_class::InstPrefetch                 0      0.00%    100.00% # Class of executed instruction
system.cpu02.op_class::total                     4859                       # Class of executed instruction
system.cpu02.pwrStateClkGateDist::samples            1                       # Distribution of time spent in the clock gated state
system.cpu02.pwrStateClkGateDist::mean       85243500                       # Distribution of time spent in the clock gated state
system.cpu02.pwrStateClkGateDist::1000-5e+10            1    100.00%    100.00% # Distribution of time spent in the clock gated state
system.cpu02.pwrStateClkGateDist::min_value     85243500                       # Distribution of time spent in the clock gated state
system.cpu02.pwrStateClkGateDist::max_value     85243500                       # Distribution of time spent in the clock gated state
system.cpu02.pwrStateClkGateDist::total             1                       # Distribution of time spent in the clock gated state
system.cpu02.pwrStateResidencyTicks::ON     396939000                       # Cumulative time (in ticks) in various power states
system.cpu02.pwrStateResidencyTicks::CLK_GATED     85243500                       # Cumulative time (in ticks) in various power states
system.cpu03.Branches                             917                       # Number of branches fetched
system.cpu03.committedInsts                      4855                       # Number of instructions committed
system.cpu03.committedOps                        4861                       # Number of ops (including micro ops) committed
system.cpu03.dtb.accesses                           0                       # DTB accesses
system.cpu03.dtb.hits                               0                       # DTB hits
system.cpu03.dtb.misses                             0                       # DTB misses
system.cpu03.dtb.pwrStateResidencyTicks::UNDEFINED    482182500                       # Cumulative time (in ticks) in various power states
system.cpu03.dtb.read_accesses                      0                       # DTB read accesses
system.cpu03.dtb.read_hits                          0                       # DTB read hits
system.cpu03.dtb.read_misses                        0                       # DTB read misses
system.cpu03.dtb.write_accesses                     0                       # DTB write accesses
system.cpu03.dtb.write_hits                         0                       # DTB write hits
system.cpu03.dtb.write_misses                       0                       # DTB write misses
system.cpu03.idle_fraction                   0.979582                       # Percentage of idle cycles
system.cpu03.itb.accesses                           0                       # DTB accesses
system.cpu03.itb.hits                               0                       # DTB hits
system.cpu03.itb.misses                             0                       # DTB misses
system.cpu03.itb.pwrStateResidencyTicks::UNDEFINED    482182500                       # Cumulative time (in ticks) in various power states
system.cpu03.itb.read_accesses                      0                       # DTB read accesses
system.cpu03.itb.read_hits                          0                       # DTB read hits
system.cpu03.itb.read_misses                        0                       # DTB read misses
system.cpu03.itb.write_accesses                     0                       # DTB write accesses
system.cpu03.itb.write_hits                         0                       # DTB write hits
system.cpu03.itb.write_misses                       0                       # DTB write misses
system.cpu03.not_idle_fraction               0.020418                       # Percentage of non-idle cycles
system.cpu03.numCycles                         964365                       # number of cpu cycles simulated
system.cpu03.numPwrStateTransitions                 2                       # Number of power state transitions
system.cpu03.numWorkItemsCompleted                  0                       # number of work items this cpu completed
system.cpu03.numWorkItemsStarted                    0                       # number of work items this cpu started
system.cpu03.num_busy_cycles             19690.001959                       # Number of busy cycles
system.cpu03.num_conditional_control_insts          466                       # number of instructions that are conditional controls
system.cpu03.num_fp_alu_accesses                   12                       # Number of float alu accesses
system.cpu03.num_fp_insts                          12                       # number of float instructions
system.cpu03.num_fp_register_reads                 12                       # number of times the floating registers were read
system.cpu03.num_fp_register_writes                 0                       # number of times the floating registers were written
system.cpu03.num_func_calls                       451                       # number of times a function call or return occured
system.cpu03.num_idle_cycles             944674.998041                       # Number of idle cycles
system.cpu03.num_int_alu_accesses                4761                       # Number of integer alu accesses
system.cpu03.num_int_insts                       4761                       # number of integer instructions
system.cpu03.num_int_register_reads              5491                       # number of times the integer registers were read
system.cpu03.num_int_register_writes             3535                       # number of times the integer registers were written
system.cpu03.num_load_insts                      1186                       # Number of load instructions
system.cpu03.num_mem_refs                        1757                       # number of memory refs
system.cpu03.num_store_insts                      571                       # Number of store instructions
system.cpu03.num_vec_alu_accesses                   0                       # Number of vector alu accesses
system.cpu03.num_vec_insts                          0                       # number of vector instructions
system.cpu03.num_vec_register_reads                 0                       # number of times the vector registers were read
system.cpu03.num_vec_register_writes                0                       # number of times the vector registers were written
system.cpu03.op_class::No_OpClass                  10      0.21%      0.21% # Class of executed instruction
system.cpu03.op_class::IntAlu                    3093     63.60%     63.81% # Class of executed instruction
system.cpu03.op_class::IntMult                      1      0.02%     63.83% # Class of executed instruction
system.cpu03.op_class::IntDiv                       2      0.04%     63.87% # Class of executed instruction
system.cpu03.op_class::FloatAdd                     0      0.00%     63.87% # Class of executed instruction
system.cpu03.op_class::FloatCmp                     0      0.00%     63.87% # Class of executed instruction
system.cpu03.op_class::FloatCvt                     0      0.00%     63.87% # Class of executed instruction
system.cpu03.op_class::FloatMult                    0      0.00%     63.87% # Class of executed instruction
system.cpu03.op_class::FloatMultAcc                 0      0.00%     63.87% # Class of executed instruction
system.cpu03.op_class::FloatDiv                     0      0.00%     63.87% # Class of executed instruction
system.cpu03.op_class::FloatMisc                    0      0.00%     63.87% # Class of executed instruction
system.cpu03.op_class::FloatSqrt                    0      0.00%     63.87% # Class of executed instruction
system.cpu03.op_class::SimdAdd                      0      0.00%     63.87% # Class of executed instruction
system.cpu03.op_class::SimdAddAcc                   0      0.00%     63.87% # Class of executed instruction
system.cpu03.op_class::SimdAlu                      0      0.00%     63.87% # Class of executed instruction
system.cpu03.op_class::SimdCmp                      0      0.00%     63.87% # Class of executed instruction
system.cpu03.op_class::SimdCvt                      0      0.00%     63.87% # Class of executed instruction
system.cpu03.op_class::SimdMisc                     0      0.00%     63.87% # Class of executed instruction
system.cpu03.op_class::SimdMult                     0      0.00%     63.87% # Class of executed instruction
system.cpu03.op_class::SimdMultAcc                  0      0.00%     63.87% # Class of executed instruction
system.cpu03.op_class::SimdShift                    0      0.00%     63.87% # Class of executed instruction
system.cpu03.op_class::SimdShiftAcc                 0      0.00%     63.87% # Class of executed instruction
system.cpu03.op_class::SimdSqrt                     0      0.00%     63.87% # Class of executed instruction
system.cpu03.op_class::SimdFloatAdd                 0      0.00%     63.87% # Class of executed instruction
system.cpu03.op_class::SimdFloatAlu                 0      0.00%     63.87% # Class of executed instruction
system.cpu03.op_class::SimdFloatCmp                 0      0.00%     63.87% # Class of executed instruction
system.cpu03.op_class::SimdFloatCvt                 0      0.00%     63.87% # Class of executed instruction
system.cpu03.op_class::SimdFloatDiv                 0      0.00%     63.87% # Class of executed instruction
system.cpu03.op_class::SimdFloatMisc                0      0.00%     63.87% # Class of executed instruction
system.cpu03.op_class::SimdFloatMult                0      0.00%     63.87% # Class of executed instruction
system.cpu03.op_class::SimdFloatMultAcc             0      0.00%     63.87% # Class of executed instruction
system.cpu03.op_class::SimdFloatSqrt                0      0.00%     63.87% # Class of executed instruction
system.cpu03.op_class::SimdAes                      0      0.00%     63.87% # Class of executed instruction
system.cpu03.op_class::SimdAesMix                   0      0.00%     63.87% # Class of executed instruction
system.cpu03.op_class::SimdSha1Hash                 0      0.00%     63.87% # Class of executed instruction
system.cpu03.op_class::SimdSha1Hash2                0      0.00%     63.87% # Class of executed instruction
system.cpu03.op_class::SimdSha256Hash               0      0.00%     63.87% # Class of executed instruction
system.cpu03.op_class::SimdSha256Hash2              0      0.00%     63.87% # Class of executed instruction
system.cpu03.op_class::SimdShaSigma2                0      0.00%     63.87% # Class of executed instruction
system.cpu03.op_class::SimdShaSigma3                0      0.00%     63.87% # Class of executed instruction
system.cpu03.op_class::MemRead                   1190     24.47%     88.34% # Class of executed instruction
system.cpu03.op_class::MemWrite                   555     11.41%     99.75% # Class of executed instruction
system.cpu03.op_class::FloatMemRead                 0      0.00%     99.75% # Class of executed instruction
system.cpu03.op_class::FloatMemWrite               12      0.25%    100.00% # Class of executed instruction
system.cpu03.op_class::IprAccess                    0      0.00%    100.00% # Class of executed instruction
system.cpu03.op_class::InstPrefetch                 0      0.00%    100.00% # Class of executed instruction
system.cpu03.op_class::total                     4863                       # Class of executed instruction
system.cpu03.pwrStateClkGateDist::samples            1                       # Distribution of time spent in the clock gated state
system.cpu03.pwrStateClkGateDist::mean       78737000                       # Distribution of time spent in the clock gated state
system.cpu03.pwrStateClkGateDist::1000-5e+10            1    100.00%    100.00% # Distribution of time spent in the clock gated state
system.cpu03.pwrStateClkGateDist::min_value     78737000                       # Distribution of time spent in the clock gated state
system.cpu03.pwrStateClkGateDist::max_value     78737000                       # Distribution of time spent in the clock gated state
system.cpu03.pwrStateClkGateDist::total             1                       # Distribution of time spent in the clock gated state
system.cpu03.pwrStateResidencyTicks::ON     403445500                       # Cumulative time (in ticks) in various power states
system.cpu03.pwrStateResidencyTicks::CLK_GATED     78737000                       # Cumulative time (in ticks) in various power states
system.cpu04.Branches                             908                       # Number of branches fetched
system.cpu04.committedInsts                      4796                       # Number of instructions committed
system.cpu04.committedOps                        4802                       # Number of ops (including micro ops) committed
system.cpu04.dtb.accesses                           0                       # DTB accesses
system.cpu04.dtb.hits                               0                       # DTB hits
system.cpu04.dtb.misses                             0                       # DTB misses
system.cpu04.dtb.pwrStateResidencyTicks::UNDEFINED    482182500                       # Cumulative time (in ticks) in various power states
system.cpu04.dtb.read_accesses                      0                       # DTB read accesses
system.cpu04.dtb.read_hits                          0                       # DTB read hits
system.cpu04.dtb.read_misses                        0                       # DTB read misses
system.cpu04.dtb.write_accesses                     0                       # DTB write accesses
system.cpu04.dtb.write_hits                         0                       # DTB write hits
system.cpu04.dtb.write_misses                       0                       # DTB write misses
system.cpu04.idle_fraction                   0.979674                       # Percentage of idle cycles
system.cpu04.itb.accesses                           0                       # DTB accesses
system.cpu04.itb.hits                               0                       # DTB hits
system.cpu04.itb.misses                             0                       # DTB misses
system.cpu04.itb.pwrStateResidencyTicks::UNDEFINED    482182500                       # Cumulative time (in ticks) in various power states
system.cpu04.itb.read_accesses                      0                       # DTB read accesses
system.cpu04.itb.read_hits                          0                       # DTB read hits
system.cpu04.itb.read_misses                        0                       # DTB read misses
system.cpu04.itb.write_accesses                     0                       # DTB write accesses
system.cpu04.itb.write_hits                         0                       # DTB write hits
system.cpu04.itb.write_misses                       0                       # DTB write misses
system.cpu04.not_idle_fraction               0.020326                       # Percentage of non-idle cycles
system.cpu04.numCycles                         964365                       # number of cpu cycles simulated
system.cpu04.numPwrStateTransitions                 2                       # Number of power state transitions
system.cpu04.numWorkItemsCompleted                  0                       # number of work items this cpu completed
system.cpu04.numWorkItemsStarted                    0                       # number of work items this cpu started
system.cpu04.num_busy_cycles             19602.001959                       # Number of busy cycles
system.cpu04.num_conditional_control_insts          459                       # number of instructions that are conditional controls
system.cpu04.num_fp_alu_accesses                   12                       # Number of float alu accesses
system.cpu04.num_fp_insts                          12                       # number of float instructions
system.cpu04.num_fp_register_reads                 12                       # number of times the floating registers were read
system.cpu04.num_fp_register_writes                 0                       # number of times the floating registers were written
system.cpu04.num_func_calls                       449                       # number of times a function call or return occured
system.cpu04.num_idle_cycles             944762.998041                       # Number of idle cycles
system.cpu04.num_int_alu_accesses                4700                       # Number of integer alu accesses
system.cpu04.num_int_insts                       4700                       # number of integer instructions
system.cpu04.num_int_register_reads              5423                       # number of times the integer registers were read
system.cpu04.num_int_register_writes             3489                       # number of times the integer registers were written
system.cpu04.num_load_insts                      1173                       # Number of load instructions
system.cpu04.num_mem_refs                        1737                       # number of memory refs
system.cpu04.num_store_insts                      564                       # Number of store instructions
system.cpu04.num_vec_alu_accesses                   0                       # Number of vector alu accesses
system.cpu04.num_vec_insts                          0                       # number of vector instructions
system.cpu04.num_vec_register_reads                 0                       # number of times the vector registers were read
system.cpu04.num_vec_register_writes                0                       # number of times the vector registers were written
system.cpu04.op_class::No_OpClass                  10      0.21%      0.21% # Class of executed instruction
system.cpu04.op_class::IntAlu                    3054     63.57%     63.78% # Class of executed instruction
system.cpu04.op_class::IntMult                      1      0.02%     63.80% # Class of executed instruction
system.cpu04.op_class::IntDiv                       2      0.04%     63.84% # Class of executed instruction
system.cpu04.op_class::FloatAdd                     0      0.00%     63.84% # Class of executed instruction
system.cpu04.op_class::FloatCmp                     0      0.00%     63.84% # Class of executed instruction
system.cpu04.op_class::FloatCvt                     0      0.00%     63.84% # Class of executed instruction
system.cpu04.op_class::FloatMult                    0      0.00%     63.84% # Class of executed instruction
system.cpu04.op_class::FloatMultAcc                 0      0.00%     63.84% # Class of executed instruction
system.cpu04.op_class::FloatDiv                     0      0.00%     63.84% # Class of executed instruction
system.cpu04.op_class::FloatMisc                    0      0.00%     63.84% # Class of executed instruction
system.cpu04.op_class::FloatSqrt                    0      0.00%     63.84% # Class of executed instruction
system.cpu04.op_class::SimdAdd                      0      0.00%     63.84% # Class of executed instruction
system.cpu04.op_class::SimdAddAcc                   0      0.00%     63.84% # Class of executed instruction
system.cpu04.op_class::SimdAlu                      0      0.00%     63.84% # Class of executed instruction
system.cpu04.op_class::SimdCmp                      0      0.00%     63.84% # Class of executed instruction
system.cpu04.op_class::SimdCvt                      0      0.00%     63.84% # Class of executed instruction
system.cpu04.op_class::SimdMisc                     0      0.00%     63.84% # Class of executed instruction
system.cpu04.op_class::SimdMult                     0      0.00%     63.84% # Class of executed instruction
system.cpu04.op_class::SimdMultAcc                  0      0.00%     63.84% # Class of executed instruction
system.cpu04.op_class::SimdShift                    0      0.00%     63.84% # Class of executed instruction
system.cpu04.op_class::SimdShiftAcc                 0      0.00%     63.84% # Class of executed instruction
system.cpu04.op_class::SimdSqrt                     0      0.00%     63.84% # Class of executed instruction
system.cpu04.op_class::SimdFloatAdd                 0      0.00%     63.84% # Class of executed instruction
system.cpu04.op_class::SimdFloatAlu                 0      0.00%     63.84% # Class of executed instruction
system.cpu04.op_class::SimdFloatCmp                 0      0.00%     63.84% # Class of executed instruction
system.cpu04.op_class::SimdFloatCvt                 0      0.00%     63.84% # Class of executed instruction
system.cpu04.op_class::SimdFloatDiv                 0      0.00%     63.84% # Class of executed instruction
system.cpu04.op_class::SimdFloatMisc                0      0.00%     63.84% # Class of executed instruction
system.cpu04.op_class::SimdFloatMult                0      0.00%     63.84% # Class of executed instruction
system.cpu04.op_class::SimdFloatMultAcc             0      0.00%     63.84% # Class of executed instruction
system.cpu04.op_class::SimdFloatSqrt                0      0.00%     63.84% # Class of executed instruction
system.cpu04.op_class::SimdAes                      0      0.00%     63.84% # Class of executed instruction
system.cpu04.op_class::SimdAesMix                   0      0.00%     63.84% # Class of executed instruction
system.cpu04.op_class::SimdSha1Hash                 0      0.00%     63.84% # Class of executed instruction
system.cpu04.op_class::SimdSha1Hash2                0      0.00%     63.84% # Class of executed instruction
system.cpu04.op_class::SimdSha256Hash               0      0.00%     63.84% # Class of executed instruction
system.cpu04.op_class::SimdSha256Hash2              0      0.00%     63.84% # Class of executed instruction
system.cpu04.op_class::SimdShaSigma2                0      0.00%     63.84% # Class of executed instruction
system.cpu04.op_class::SimdShaSigma3                0      0.00%     63.84% # Class of executed instruction
system.cpu04.op_class::MemRead                   1177     24.50%     88.34% # Class of executed instruction
system.cpu04.op_class::MemWrite                   548     11.41%     99.75% # Class of executed instruction
system.cpu04.op_class::FloatMemRead                 0      0.00%     99.75% # Class of executed instruction
system.cpu04.op_class::FloatMemWrite               12      0.25%    100.00% # Class of executed instruction
system.cpu04.op_class::IprAccess                    0      0.00%    100.00% # Class of executed instruction
system.cpu04.op_class::InstPrefetch                 0      0.00%    100.00% # Class of executed instruction
system.cpu04.op_class::total                     4804                       # Class of executed instruction
system.cpu04.pwrStateClkGateDist::samples            1                       # Distribution of time spent in the clock gated state
system.cpu04.pwrStateClkGateDist::mean       71578500                       # Distribution of time spent in the clock gated state
system.cpu04.pwrStateClkGateDist::1000-5e+10            1    100.00%    100.00% # Distribution of time spent in the clock gated state
system.cpu04.pwrStateClkGateDist::min_value     71578500                       # Distribution of time spent in the clock gated state
system.cpu04.pwrStateClkGateDist::max_value     71578500                       # Distribution of time spent in the clock gated state
system.cpu04.pwrStateClkGateDist::total             1                       # Distribution of time spent in the clock gated state
system.cpu04.pwrStateResidencyTicks::ON     410604000                       # Cumulative time (in ticks) in various power states
system.cpu04.pwrStateResidencyTicks::CLK_GATED     71578500                       # Cumulative time (in ticks) in various power states
system.cpu05.Branches                             916                       # Number of branches fetched
system.cpu05.committedInsts                      4851                       # Number of instructions committed
system.cpu05.committedOps                        4857                       # Number of ops (including micro ops) committed
system.cpu05.dtb.accesses                           0                       # DTB accesses
system.cpu05.dtb.hits                               0                       # DTB hits
system.cpu05.dtb.misses                             0                       # DTB misses
system.cpu05.dtb.pwrStateResidencyTicks::UNDEFINED    482182500                       # Cumulative time (in ticks) in various power states
system.cpu05.dtb.read_accesses                      0                       # DTB read accesses
system.cpu05.dtb.read_hits                          0                       # DTB read hits
system.cpu05.dtb.read_misses                        0                       # DTB read misses
system.cpu05.dtb.write_accesses                     0                       # DTB write accesses
system.cpu05.dtb.write_hits                         0                       # DTB write hits
system.cpu05.dtb.write_misses                       0                       # DTB write misses
system.cpu05.idle_fraction                   0.979964                       # Percentage of idle cycles
system.cpu05.itb.accesses                           0                       # DTB accesses
system.cpu05.itb.hits                               0                       # DTB hits
system.cpu05.itb.misses                             0                       # DTB misses
system.cpu05.itb.pwrStateResidencyTicks::UNDEFINED    482182500                       # Cumulative time (in ticks) in various power states
system.cpu05.itb.read_accesses                      0                       # DTB read accesses
system.cpu05.itb.read_hits                          0                       # DTB read hits
system.cpu05.itb.read_misses                        0                       # DTB read misses
system.cpu05.itb.write_accesses                     0                       # DTB write accesses
system.cpu05.itb.write_hits                         0                       # DTB write hits
system.cpu05.itb.write_misses                       0                       # DTB write misses
system.cpu05.not_idle_fraction               0.020036                       # Percentage of non-idle cycles
system.cpu05.numCycles                         964364                       # number of cpu cycles simulated
system.cpu05.numPwrStateTransitions                 2                       # Number of power state transitions
system.cpu05.numWorkItemsCompleted                  0                       # number of work items this cpu completed
system.cpu05.numWorkItemsStarted                    0                       # number of work items this cpu started
system.cpu05.num_busy_cycles             19321.981924                       # Number of busy cycles
system.cpu05.num_conditional_control_insts          467                       # number of instructions that are conditional controls
system.cpu05.num_fp_alu_accesses                   12                       # Number of float alu accesses
system.cpu05.num_fp_insts                          12                       # number of float instructions
system.cpu05.num_fp_register_reads                 12                       # number of times the floating registers were read
system.cpu05.num_fp_register_writes                 0                       # number of times the floating registers were written
system.cpu05.num_func_calls                       449                       # number of times a function call or return occured
system.cpu05.num_idle_cycles             945042.018076                       # Number of idle cycles
system.cpu05.num_int_alu_accesses                4759                       # Number of integer alu accesses
system.cpu05.num_int_insts                       4759                       # number of integer instructions
system.cpu05.num_int_register_reads              5487                       # number of times the integer registers were read
system.cpu05.num_int_register_writes             3532                       # number of times the integer registers were written
system.cpu05.num_load_insts                      1185                       # Number of load instructions
system.cpu05.num_mem_refs                        1756                       # number of memory refs
system.cpu05.num_store_insts                      571                       # Number of store instructions
system.cpu05.num_vec_alu_accesses                   0                       # Number of vector alu accesses
system.cpu05.num_vec_insts                          0                       # number of vector instructions
system.cpu05.num_vec_register_reads                 0                       # number of times the vector registers were read
system.cpu05.num_vec_register_writes                0                       # number of times the vector registers were written
system.cpu05.op_class::No_OpClass                  10      0.21%      0.21% # Class of executed instruction
system.cpu05.op_class::IntAlu                    3090     63.59%     63.80% # Class of executed instruction
system.cpu05.op_class::IntMult                      1      0.02%     63.82% # Class of executed instruction
system.cpu05.op_class::IntDiv                       2      0.04%     63.86% # Class of executed instruction
system.cpu05.op_class::FloatAdd                     0      0.00%     63.86% # Class of executed instruction
system.cpu05.op_class::FloatCmp                     0      0.00%     63.86% # Class of executed instruction
system.cpu05.op_class::FloatCvt                     0      0.00%     63.86% # Class of executed instruction
system.cpu05.op_class::FloatMult                    0      0.00%     63.86% # Class of executed instruction
system.cpu05.op_class::FloatMultAcc                 0      0.00%     63.86% # Class of executed instruction
system.cpu05.op_class::FloatDiv                     0      0.00%     63.86% # Class of executed instruction
system.cpu05.op_class::FloatMisc                    0      0.00%     63.86% # Class of executed instruction
system.cpu05.op_class::FloatSqrt                    0      0.00%     63.86% # Class of executed instruction
system.cpu05.op_class::SimdAdd                      0      0.00%     63.86% # Class of executed instruction
system.cpu05.op_class::SimdAddAcc                   0      0.00%     63.86% # Class of executed instruction
system.cpu05.op_class::SimdAlu                      0      0.00%     63.86% # Class of executed instruction
system.cpu05.op_class::SimdCmp                      0      0.00%     63.86% # Class of executed instruction
system.cpu05.op_class::SimdCvt                      0      0.00%     63.86% # Class of executed instruction
system.cpu05.op_class::SimdMisc                     0      0.00%     63.86% # Class of executed instruction
system.cpu05.op_class::SimdMult                     0      0.00%     63.86% # Class of executed instruction
system.cpu05.op_class::SimdMultAcc                  0      0.00%     63.86% # Class of executed instruction
system.cpu05.op_class::SimdShift                    0      0.00%     63.86% # Class of executed instruction
system.cpu05.op_class::SimdShiftAcc                 0      0.00%     63.86% # Class of executed instruction
system.cpu05.op_class::SimdSqrt                     0      0.00%     63.86% # Class of executed instruction
system.cpu05.op_class::SimdFloatAdd                 0      0.00%     63.86% # Class of executed instruction
system.cpu05.op_class::SimdFloatAlu                 0      0.00%     63.86% # Class of executed instruction
system.cpu05.op_class::SimdFloatCmp                 0      0.00%     63.86% # Class of executed instruction
system.cpu05.op_class::SimdFloatCvt                 0      0.00%     63.86% # Class of executed instruction
system.cpu05.op_class::SimdFloatDiv                 0      0.00%     63.86% # Class of executed instruction
system.cpu05.op_class::SimdFloatMisc                0      0.00%     63.86% # Class of executed instruction
system.cpu05.op_class::SimdFloatMult                0      0.00%     63.86% # Class of executed instruction
system.cpu05.op_class::SimdFloatMultAcc             0      0.00%     63.86% # Class of executed instruction
system.cpu05.op_class::SimdFloatSqrt                0      0.00%     63.86% # Class of executed instruction
system.cpu05.op_class::SimdAes                      0      0.00%     63.86% # Class of executed instruction
system.cpu05.op_class::SimdAesMix                   0      0.00%     63.86% # Class of executed instruction
system.cpu05.op_class::SimdSha1Hash                 0      0.00%     63.86% # Class of executed instruction
system.cpu05.op_class::SimdSha1Hash2                0      0.00%     63.86% # Class of executed instruction
system.cpu05.op_class::SimdSha256Hash               0      0.00%     63.86% # Class of executed instruction
system.cpu05.op_class::SimdSha256Hash2              0      0.00%     63.86% # Class of executed instruction
system.cpu05.op_class::SimdShaSigma2                0      0.00%     63.86% # Class of executed instruction
system.cpu05.op_class::SimdShaSigma3                0      0.00%     63.86% # Class of executed instruction
system.cpu05.op_class::MemRead                   1189     24.47%     88.33% # Class of executed instruction
system.cpu05.op_class::MemWrite                   555     11.42%     99.75% # Class of executed instruction
system.cpu05.op_class::FloatMemRead                 0      0.00%     99.75% # Class of executed instruction
system.cpu05.op_class::FloatMemWrite               12      0.25%    100.00% # Class of executed instruction
system.cpu05.op_class::IprAccess                    0      0.00%    100.00% # Class of executed instruction
system.cpu05.op_class::InstPrefetch                 0      0.00%    100.00% # Class of executed instruction
system.cpu05.op_class::total                     4859                       # Class of executed instruction
system.cpu05.pwrStateClkGateDist::samples            1                       # Distribution of time spent in the clock gated state
system.cpu05.pwrStateClkGateDist::mean       65292000                       # Distribution of time spent in the clock gated state
system.cpu05.pwrStateClkGateDist::1000-5e+10            1    100.00%    100.00% # Distribution of time spent in the clock gated state
system.cpu05.pwrStateClkGateDist::min_value     65292000                       # Distribution of time spent in the clock gated state
system.cpu05.pwrStateClkGateDist::max_value     65292000                       # Distribution of time spent in the clock gated state
system.cpu05.pwrStateClkGateDist::total             1                       # Distribution of time spent in the clock gated state
system.cpu05.pwrStateResidencyTicks::ON     416890500                       # Cumulative time (in ticks) in various power states
system.cpu05.pwrStateResidencyTicks::CLK_GATED     65292000                       # Cumulative time (in ticks) in various power states
system.cpu06.Branches                             906                       # Number of branches fetched
system.cpu06.committedInsts                      4790                       # Number of instructions committed
system.cpu06.committedOps                        4796                       # Number of ops (including micro ops) committed
system.cpu06.dtb.accesses                           0                       # DTB accesses
system.cpu06.dtb.hits                               0                       # DTB hits
system.cpu06.dtb.misses                             0                       # DTB misses
system.cpu06.dtb.pwrStateResidencyTicks::UNDEFINED    482182500                       # Cumulative time (in ticks) in various power states
system.cpu06.dtb.read_accesses                      0                       # DTB read accesses
system.cpu06.dtb.read_hits                          0                       # DTB read hits
system.cpu06.dtb.read_misses                        0                       # DTB read misses
system.cpu06.dtb.write_accesses                     0                       # DTB write accesses
system.cpu06.dtb.write_hits                         0                       # DTB write hits
system.cpu06.dtb.write_misses                       0                       # DTB write misses
system.cpu06.idle_fraction                   0.979956                       # Percentage of idle cycles
system.cpu06.itb.accesses                           0                       # DTB accesses
system.cpu06.itb.hits                               0                       # DTB hits
system.cpu06.itb.misses                             0                       # DTB misses
system.cpu06.itb.pwrStateResidencyTicks::UNDEFINED    482182500                       # Cumulative time (in ticks) in various power states
system.cpu06.itb.read_accesses                      0                       # DTB read accesses
system.cpu06.itb.read_hits                          0                       # DTB read hits
system.cpu06.itb.read_misses                        0                       # DTB read misses
system.cpu06.itb.write_accesses                     0                       # DTB write accesses
system.cpu06.itb.write_hits                         0                       # DTB write hits
system.cpu06.itb.write_misses                       0                       # DTB write misses
system.cpu06.not_idle_fraction               0.020044                       # Percentage of non-idle cycles
system.cpu06.numCycles                         964364                       # number of cpu cycles simulated
system.cpu06.numPwrStateTransitions                 2                       # Number of power state transitions
system.cpu06.numWorkItemsCompleted                  0                       # number of work items this cpu completed
system.cpu06.numWorkItemsStarted                    0                       # number of work items this cpu started
system.cpu06.num_busy_cycles             19329.981916                       # Number of busy cycles
system.cpu06.num_conditional_control_insts          459                       # number of instructions that are conditional controls
system.cpu06.num_fp_alu_accesses                   12                       # Number of float alu accesses
system.cpu06.num_fp_insts                          12                       # number of float instructions
system.cpu06.num_fp_register_reads                 12                       # number of times the floating registers were read
system.cpu06.num_fp_register_writes                 0                       # number of times the floating registers were written
system.cpu06.num_func_calls                       447                       # number of times a function call or return occured
system.cpu06.num_idle_cycles             945034.018084                       # Number of idle cycles
system.cpu06.num_int_alu_accesses                4696                       # Number of integer alu accesses
system.cpu06.num_int_insts                       4696                       # number of integer instructions
system.cpu06.num_int_register_reads              5416                       # number of times the integer registers were read
system.cpu06.num_int_register_writes             3486                       # number of times the integer registers were written
system.cpu06.num_load_insts                      1171                       # Number of load instructions
system.cpu06.num_mem_refs                        1735                       # number of memory refs
system.cpu06.num_store_insts                      564                       # Number of store instructions
system.cpu06.num_vec_alu_accesses                   0                       # Number of vector alu accesses
system.cpu06.num_vec_insts                          0                       # number of vector instructions
system.cpu06.num_vec_register_reads                 0                       # number of times the vector registers were read
system.cpu06.num_vec_register_writes                0                       # number of times the vector registers were written
system.cpu06.op_class::No_OpClass                  10      0.21%      0.21% # Class of executed instruction
system.cpu06.op_class::IntAlu                    3050     63.57%     63.78% # Class of executed instruction
system.cpu06.op_class::IntMult                      1      0.02%     63.80% # Class of executed instruction
system.cpu06.op_class::IntDiv                       2      0.04%     63.84% # Class of executed instruction
system.cpu06.op_class::FloatAdd                     0      0.00%     63.84% # Class of executed instruction
system.cpu06.op_class::FloatCmp                     0      0.00%     63.84% # Class of executed instruction
system.cpu06.op_class::FloatCvt                     0      0.00%     63.84% # Class of executed instruction
system.cpu06.op_class::FloatMult                    0      0.00%     63.84% # Class of executed instruction
system.cpu06.op_class::FloatMultAcc                 0      0.00%     63.84% # Class of executed instruction
system.cpu06.op_class::FloatDiv                     0      0.00%     63.84% # Class of executed instruction
system.cpu06.op_class::FloatMisc                    0      0.00%     63.84% # Class of executed instruction
system.cpu06.op_class::FloatSqrt                    0      0.00%     63.84% # Class of executed instruction
system.cpu06.op_class::SimdAdd                      0      0.00%     63.84% # Class of executed instruction
system.cpu06.op_class::SimdAddAcc                   0      0.00%     63.84% # Class of executed instruction
system.cpu06.op_class::SimdAlu                      0      0.00%     63.84% # Class of executed instruction
system.cpu06.op_class::SimdCmp                      0      0.00%     63.84% # Class of executed instruction
system.cpu06.op_class::SimdCvt                      0      0.00%     63.84% # Class of executed instruction
system.cpu06.op_class::SimdMisc                     0      0.00%     63.84% # Class of executed instruction
system.cpu06.op_class::SimdMult                     0      0.00%     63.84% # Class of executed instruction
system.cpu06.op_class::SimdMultAcc                  0      0.00%     63.84% # Class of executed instruction
system.cpu06.op_class::SimdShift                    0      0.00%     63.84% # Class of executed instruction
system.cpu06.op_class::SimdShiftAcc                 0      0.00%     63.84% # Class of executed instruction
system.cpu06.op_class::SimdSqrt                     0      0.00%     63.84% # Class of executed instruction
system.cpu06.op_class::SimdFloatAdd                 0      0.00%     63.84% # Class of executed instruction
system.cpu06.op_class::SimdFloatAlu                 0      0.00%     63.84% # Class of executed instruction
system.cpu06.op_class::SimdFloatCmp                 0      0.00%     63.84% # Class of executed instruction
system.cpu06.op_class::SimdFloatCvt                 0      0.00%     63.84% # Class of executed instruction
system.cpu06.op_class::SimdFloatDiv                 0      0.00%     63.84% # Class of executed instruction
system.cpu06.op_class::SimdFloatMisc                0      0.00%     63.84% # Class of executed instruction
system.cpu06.op_class::SimdFloatMult                0      0.00%     63.84% # Class of executed instruction
system.cpu06.op_class::SimdFloatMultAcc             0      0.00%     63.84% # Class of executed instruction
system.cpu06.op_class::SimdFloatSqrt                0      0.00%     63.84% # Class of executed instruction
system.cpu06.op_class::SimdAes                      0      0.00%     63.84% # Class of executed instruction
system.cpu06.op_class::SimdAesMix                   0      0.00%     63.84% # Class of executed instruction
system.cpu06.op_class::SimdSha1Hash                 0      0.00%     63.84% # Class of executed instruction
system.cpu06.op_class::SimdSha1Hash2                0      0.00%     63.84% # Class of executed instruction
system.cpu06.op_class::SimdSha256Hash               0      0.00%     63.84% # Class of executed instruction
system.cpu06.op_class::SimdSha256Hash2              0      0.00%     63.84% # Class of executed instruction
system.cpu06.op_class::SimdShaSigma2                0      0.00%     63.84% # Class of executed instruction
system.cpu06.op_class::SimdShaSigma3                0      0.00%     63.84% # Class of executed instruction
system.cpu06.op_class::MemRead                   1175     24.49%     88.33% # Class of executed instruction
system.cpu06.op_class::MemWrite                   548     11.42%     99.75% # Class of executed instruction
system.cpu06.op_class::FloatMemRead                 0      0.00%     99.75% # Class of executed instruction
system.cpu06.op_class::FloatMemWrite               12      0.25%    100.00% # Class of executed instruction
system.cpu06.op_class::IprAccess                    0      0.00%    100.00% # Class of executed instruction
system.cpu06.op_class::InstPrefetch                 0      0.00%    100.00% # Class of executed instruction
system.cpu06.op_class::total                     4798                       # Class of executed instruction
system.cpu06.pwrStateClkGateDist::samples            1                       # Distribution of time spent in the clock gated state
system.cpu06.pwrStateClkGateDist::mean       59057500                       # Distribution of time spent in the clock gated state
system.cpu06.pwrStateClkGateDist::1000-5e+10            1    100.00%    100.00% # Distribution of time spent in the clock gated state
system.cpu06.pwrStateClkGateDist::min_value     59057500                       # Distribution of time spent in the clock gated state
[...]
system.ruby.network.int_links39.credit_link.pwrStateResidencyTicks::UNDEFINED    482182500                       # Cumulative time (in ticks) in various power states
system.ruby.network.int_links39.network_link.pwrStateResidencyTicks::UNDEFINED    482182500                       # Cumulative time (in ticks) in various power states
system.ruby.network.int_links40.credit_link.pwrStateResidencyTicks::UNDEFINED    482182500                       # Cumulative time (in ticks) in various power states
system.ruby.network.int_links40.network_link.pwrStateResidencyTicks::UNDEFINED    482182500                       # Cumulative time (in ticks) in various power states
system.ruby.network.int_links41.credit_link.pwrStateResidencyTicks::UNDEFINED    482182500                       # Cumulative time (in ticks) in various power states
system.ruby.network.int_links41.network_link.pwrStateResidencyTicks::UNDEFINED    482182500                       # Cumulative time (in ticks) in various power states
system.ruby.network.int_links42.credit_link.pwrStateResidencyTicks::UNDEFINED    482182500                       # Cumulative time (in ticks) in various power states
system.ruby.network.int_links42.network_link.pwrStateResidencyTicks::UNDEFINED    482182500                       # Cumulative time (in ticks) in various power states
system.ruby.network.int_links43.credit_link.pwrStateResidencyTicks::UNDEFINED    482182500                       # Cumulative time (in ticks) in various power states
system.ruby.network.int_links43.network_link.pwrStateResidencyTicks::UNDEFINED    482182500                       # Cumulative time (in ticks) in various power states
system.ruby.network.int_links44.credit_link.pwrStateResidencyTicks::UNDEFINED    482182500                       # Cumulative time (in ticks) in various power states
system.ruby.network.int_links44.network_link.pwrStateResidencyTicks::UNDEFINED    482182500                       # Cumulative time (in ticks) in various power states
system.ruby.network.int_links45.credit_link.pwrStateResidencyTicks::UNDEFINED    482182500                       # Cumulative time (in ticks) in various power states
system.ruby.network.int_links45.network_link.pwrStateResidencyTicks::UNDEFINED    482182500                       # Cumulative time (in ticks) in various power states
system.ruby.network.int_links46.credit_link.pwrStateResidencyTicks::UNDEFINED    482182500                       # Cumulative time (in ticks) in various power states
system.ruby.network.int_links46.network_link.pwrStateResidencyTicks::UNDEFINED    482182500                       # Cumulative time (in ticks) in various power states
system.ruby.network.int_links47.credit_link.pwrStateResidencyTicks::UNDEFINED    482182500                       # Cumulative time (in ticks) in various power states
system.ruby.network.int_links47.network_link.pwrStateResidencyTicks::UNDEFINED    482182500                       # Cumulative time (in ticks) in various power states
system.ruby.network.netifs00.pwrStateResidencyTicks::UNDEFINED    482182500                       # Cumulative time (in ticks) in various power states
system.ruby.network.netifs01.pwrStateResidencyTicks::UNDEFINED    482182500                       # Cumulative time (in ticks) in various power states
system.ruby.network.netifs02.pwrStateResidencyTicks::UNDEFINED    482182500                       # Cumulative time (in ticks) in various power states
system.ruby.network.netifs03.pwrStateResidencyTicks::UNDEFINED    482182500                       # Cumulative time (in ticks) in various power states
system.ruby.network.netifs04.pwrStateResidencyTicks::UNDEFINED    482182500                       # Cumulative time (in ticks) in various power states
system.ruby.network.netifs05.pwrStateResidencyTicks::UNDEFINED    482182500                       # Cumulative time (in ticks) in various power states
system.ruby.network.netifs06.pwrStateResidencyTicks::UNDEFINED    482182500                       # Cumulative time (in ticks) in various power states
system.ruby.network.netifs07.pwrStateResidencyTicks::UNDEFINED    482182500                       # Cumulative time (in ticks) in various power states
system.ruby.network.netifs08.pwrStateResidencyTicks::UNDEFINED    482182500                       # Cumulative time (in ticks) in various power states
system.ruby.network.netifs09.pwrStateResidencyTicks::UNDEFINED    482182500                       # Cumulative time (in ticks) in various power states
system.ruby.network.netifs10.pwrStateResidencyTicks::UNDEFINED    482182500                       # Cumulative time (in ticks) in various power states
system.ruby.network.netifs11.pwrStateResidencyTicks::UNDEFINED    482182500                       # Cumulative time (in ticks) in various power states
system.ruby.network.netifs12.pwrStateResidencyTicks::UNDEFINED    482182500                       # Cumulative time (in ticks) in various power states
system.ruby.network.netifs13.pwrStateResidencyTicks::UNDEFINED    482182500                       # Cumulative time (in ticks) in various power states
system.ruby.network.netifs14.pwrStateResidencyTicks::UNDEFINED    482182500                       # Cumulative time (in ticks) in various power states
system.ruby.network.netifs15.pwrStateResidencyTicks::UNDEFINED    482182500                       # Cumulative time (in ticks) in various power states
system.ruby.network.netifs16.pwrStateResidencyTicks::UNDEFINED    482182500                       # Cumulative time (in ticks) in various power states
system.ruby.network.netifs17.pwrStateResidencyTicks::UNDEFINED    482182500                       # Cumulative time (in ticks) in various power states
system.ruby.network.netifs18.pwrStateResidencyTicks::UNDEFINED    482182500                       # Cumulative time (in ticks) in various power states
system.ruby.network.netifs19.pwrStateResidencyTicks::UNDEFINED    482182500                       # Cumulative time (in ticks) in various power states
system.ruby.network.netifs20.pwrStateResidencyTicks::UNDEFINED    482182500                       # Cumulative time (in ticks) in various power states
system.ruby.network.netifs21.pwrStateResidencyTicks::UNDEFINED    482182500                       # Cumulative time (in ticks) in various power states
system.ruby.network.netifs22.pwrStateResidencyTicks::UNDEFINED    482182500                       # Cumulative time (in ticks) in various power states
system.ruby.network.netifs23.pwrStateResidencyTicks::UNDEFINED    482182500                       # Cumulative time (in ticks) in various power states
system.ruby.network.netifs24.pwrStateResidencyTicks::UNDEFINED    482182500                       # Cumulative time (in ticks) in various power states
system.ruby.network.netifs25.pwrStateResidencyTicks::UNDEFINED    482182500                       # Cumulative time (in ticks) in various power states
system.ruby.network.netifs26.pwrStateResidencyTicks::UNDEFINED    482182500                       # Cumulative time (in ticks) in various power states
system.ruby.network.netifs27.pwrStateResidencyTicks::UNDEFINED    482182500                       # Cumulative time (in ticks) in various power states
system.ruby.network.netifs28.pwrStateResidencyTicks::UNDEFINED    482182500                       # Cumulative time (in ticks) in various power states
system.ruby.network.netifs29.pwrStateResidencyTicks::UNDEFINED    482182500                       # Cumulative time (in ticks) in various power states
system.ruby.network.netifs30.pwrStateResidencyTicks::UNDEFINED    482182500                       # Cumulative time (in ticks) in various power states
system.ruby.network.netifs31.pwrStateResidencyTicks::UNDEFINED    482182500                       # Cumulative time (in ticks) in various power states
system.ruby.network.netifs32.pwrStateResidencyTicks::UNDEFINED    482182500                       # Cumulative time (in ticks) in various power states
system.ruby.network.netifs33.pwrStateResidencyTicks::UNDEFINED    482182500                       # Cumulative time (in ticks) in various power states
system.ruby.network.netifs34.pwrStateResidencyTicks::UNDEFINED    482182500                       # Cumulative time (in ticks) in various power states
system.ruby.network.netifs35.pwrStateResidencyTicks::UNDEFINED    482182500                       # Cumulative time (in ticks) in various power states
system.ruby.network.packet_network_latency |      222889                       |      241577                       |       55439                      
system.ruby.network.packet_queueing_latency |       45535                       |       29881                       |        6576                      
system.ruby.network.packets_injected     |       19837     42.71%     42.71% |       20032     43.13%     85.84% |        6576     14.16%    100.00%
system.ruby.network.packets_injected::total        46445                      
system.ruby.network.packets_received     |       19837     42.71%     42.71% |       20032     43.13%     85.84% |        6576     14.16%    100.00%
system.ruby.network.packets_received::total        46445                      
system.ruby.network.pwrStateResidencyTicks::UNDEFINED    482182500                       # Cumulative time (in ticks) in various power states
system.ruby.network.routers00.buffer_reads        94892                      
system.ruby.network.routers00.buffer_writes        94892                      
system.ruby.network.routers00.crossbar_activity        94892                      
system.ruby.network.routers00.pwrStateResidencyTicks::UNDEFINED    482182500                       # Cumulative time (in ticks) in various power states
system.ruby.network.routers00.sw_input_arbiter_activity        94951                      
system.ruby.network.routers00.sw_output_arbiter_activity        94892                      
system.ruby.network.routers01.buffer_reads        38568                      
system.ruby.network.routers01.buffer_writes        38568                      
system.ruby.network.routers01.crossbar_activity        38568                      
system.ruby.network.routers01.pwrStateResidencyTicks::UNDEFINED    482182500                       # Cumulative time (in ticks) in various power states
system.ruby.network.routers01.sw_input_arbiter_activity        38607                      
system.ruby.network.routers01.sw_output_arbiter_activity        38568                      
system.ruby.network.routers02.buffer_reads        24881                      
system.ruby.network.routers02.buffer_writes        24881                      
system.ruby.network.routers02.crossbar_activity        24881                      
system.ruby.network.routers02.pwrStateResidencyTicks::UNDEFINED    482182500                       # Cumulative time (in ticks) in various power states
system.ruby.network.routers02.sw_input_arbiter_activity        24899                      
system.ruby.network.routers02.sw_output_arbiter_activity        24881                      
system.ruby.network.routers03.buffer_reads        15398                      
system.ruby.network.routers03.buffer_writes        15398                      
system.ruby.network.routers03.crossbar_activity        15398                      
system.ruby.network.routers03.pwrStateResidencyTicks::UNDEFINED    482182500                       # Cumulative time (in ticks) in various power states
system.ruby.network.routers03.sw_input_arbiter_activity        15411                      
system.ruby.network.routers03.sw_output_arbiter_activity        15398                      
system.ruby.network.routers04.buffer_reads        56800                      
system.ruby.network.routers04.buffer_writes        56800                      
system.ruby.network.routers04.crossbar_activity        56800                      
system.ruby.network.routers04.pwrStateResidencyTicks::UNDEFINED    482182500                       # Cumulative time (in ticks) in various power states
system.ruby.network.routers04.sw_input_arbiter_activity        56818                      
system.ruby.network.routers04.sw_output_arbiter_activity        56800                      
system.ruby.network.routers05.buffer_reads        18430                      
system.ruby.network.routers05.buffer_writes        18430                      
system.ruby.network.routers05.crossbar_activity        18430                      
system.ruby.network.routers05.pwrStateResidencyTicks::UNDEFINED    482182500                       # Cumulative time (in ticks) in various power states
system.ruby.network.routers05.sw_input_arbiter_activity        18457                      
system.ruby.network.routers05.sw_output_arbiter_activity        18430                      
system.ruby.network.routers06.buffer_reads        15009                      
system.ruby.network.routers06.buffer_writes        15009                      
system.ruby.network.routers06.crossbar_activity        15009                      
system.ruby.network.routers06.pwrStateResidencyTicks::UNDEFINED    482182500                       # Cumulative time (in ticks) in various power states
system.ruby.network.routers06.sw_input_arbiter_activity        15027                      
system.ruby.network.routers06.sw_output_arbiter_activity        15009                      
system.ruby.network.routers07.buffer_reads        11783                      
system.ruby.network.routers07.buffer_writes        11783                      
system.ruby.network.routers07.crossbar_activity        11783                      
system.ruby.network.routers07.pwrStateResidencyTicks::UNDEFINED    482182500                       # Cumulative time (in ticks) in various power states
system.ruby.network.routers07.sw_input_arbiter_activity        11784                      
system.ruby.network.routers07.sw_output_arbiter_activity        11783                      
system.ruby.network.routers08.buffer_reads        38714                      
system.ruby.network.routers08.buffer_writes        38714                      
system.ruby.network.routers08.crossbar_activity        38714                      
system.ruby.network.routers08.pwrStateResidencyTicks::UNDEFINED    482182500                       # Cumulative time (in ticks) in various power states
system.ruby.network.routers08.sw_input_arbiter_activity        38731                      
system.ruby.network.routers08.sw_output_arbiter_activity        38714                      
system.ruby.network.routers09.buffer_reads        16209                      
system.ruby.network.routers09.buffer_writes        16209                      
system.ruby.network.routers09.crossbar_activity        16209                      
system.ruby.network.routers09.pwrStateResidencyTicks::UNDEFINED    482182500                       # Cumulative time (in ticks) in various power states
system.ruby.network.routers09.sw_input_arbiter_activity        16223                      
system.ruby.network.routers09.sw_output_arbiter_activity        16209                      
system.ruby.network.routers10.buffer_reads        15155                      
system.ruby.network.routers10.buffer_writes        15155                      
system.ruby.network.routers10.crossbar_activity        15155                      
system.ruby.network.routers10.pwrStateResidencyTicks::UNDEFINED    482182500                       # Cumulative time (in ticks) in various power states
system.ruby.network.routers10.sw_input_arbiter_activity        15163                      
system.ruby.network.routers10.sw_output_arbiter_activity        15155                      
system.ruby.network.routers11.buffer_reads        11204                      
system.ruby.network.routers11.buffer_writes        11204                      
system.ruby.network.routers11.crossbar_activity        11204                      
system.ruby.network.routers11.pwrStateResidencyTicks::UNDEFINED    482182500                       # Cumulative time (in ticks) in various power states
system.ruby.network.routers11.sw_input_arbiter_activity        11206                      
system.ruby.network.routers11.sw_output_arbiter_activity        11204                      
system.ruby.network.routers12.buffer_reads        28594                      
system.ruby.network.routers12.buffer_writes        28594                      
system.ruby.network.routers12.crossbar_activity        28594                      
system.ruby.network.routers12.pwrStateResidencyTicks::UNDEFINED    482182500                       # Cumulative time (in ticks) in various power states
system.ruby.network.routers12.sw_input_arbiter_activity        28601                      
system.ruby.network.routers12.sw_output_arbiter_activity        28594                      
system.ruby.network.routers13.buffer_reads        18479                      
system.ruby.network.routers13.buffer_writes        18479                      
system.ruby.network.routers13.crossbar_activity        18479                      
system.ruby.network.routers13.pwrStateResidencyTicks::UNDEFINED    482182500                       # Cumulative time (in ticks) in various power states
system.ruby.network.routers13.sw_input_arbiter_activity        18489                      
system.ruby.network.routers13.sw_output_arbiter_activity        18479                      
system.ruby.network.routers14.buffer_reads        14285                      
system.ruby.network.routers14.buffer_writes        14285                      
system.ruby.network.routers14.crossbar_activity        14285                      
system.ruby.network.routers14.pwrStateResidencyTicks::UNDEFINED    482182500                       # Cumulative time (in ticks) in various power states
system.ruby.network.routers14.sw_input_arbiter_activity        14289                      
system.ruby.network.routers14.sw_output_arbiter_activity        14285                      
system.ruby.network.routers15.buffer_reads        10054                      
system.ruby.network.routers15.buffer_writes        10054                      
system.ruby.network.routers15.crossbar_activity        10054                      
system.ruby.network.routers15.pwrStateResidencyTicks::UNDEFINED    482182500                       # Cumulative time (in ticks) in various power states
system.ruby.network.routers15.sw_input_arbiter_activity        10055                      
system.ruby.network.routers15.sw_output_arbiter_activity        10054                      
system.ruby.outstanding_req_hist_seqr::bucket_size            1                      
system.ruby.outstanding_req_hist_seqr::max_bucket            9                      
system.ruby.outstanding_req_hist_seqr::samples       258900                      
system.ruby.outstanding_req_hist_seqr::mean            1                      
system.ruby.outstanding_req_hist_seqr::gmean            1                      
system.ruby.outstanding_req_hist_seqr    |           0      0.00%      0.00% |      258900    100.00%    100.00% |           0      0.00%    100.00% |           0      0.00%    100.00% |           0      0.00%    100.00% |           0      0.00%    100.00% |           0      0.00%    100.00% |           0      0.00%    100.00% |           0      0.00%    100.00% |           0      0.00%    100.00%
system.ruby.outstanding_req_hist_seqr::total       258900                      
system.ruby.pwrStateResidencyTicks::UNDEFINED    482182500                       # Cumulative time (in ticks) in various power states
system.sys_port_proxy.pwrStateResidencyTicks::UNDEFINED    482182500                       # Cumulative time (in ticks) in various power states
system.voltage_domain.voltage                       1                       # Voltage in Volts

---------- End Simulation Statistics   ----------
