
---------- Begin Simulation Statistics ----------
final_tick                                  521044000                       # Number of ticks from beginning of simulation (restored from checkpoints and never reset)
host_inst_rate                                  41640                       # Simulator instruction rate (inst/s)
host_mem_usage                                5159784                       # Number of bytes of host memory used
host_op_rate                                    41735                       # Simulator op (including micro ops) rate (op/s)
host_seconds                                     3.96                       # Real time elapsed on the host
host_tick_rate                              131446719                       # Simulator tick rate (ticks/s)
sim_freq                                 1000000000000                       # Frequency of simulated ticks
sim_insts                                      165049                       # Number of instructions simulated
sim_ops                                        165431                       # Number of ops (including micro ops) simulated
sim_seconds                                  0.000521                       # Number of seconds simulated
sim_ticks                                   521044000                       # Number of ticks simulated
system.clk_domain.clock                          1000                       # Clock period in ticks
system.cpu00.Branches                           22351                       # Number of branches fetched
system.cpu00.committedInsts                    100001                       # Number of instructions committed
system.cpu00.committedOps                      100294                       # Number of ops (including micro ops) committed
system.cpu00.dtb.accesses                           0                       # DTB accesses
system.cpu00.dtb.hits                               0                       # DTB hits
system.cpu00.dtb.misses                             0                       # DTB misses
system.cpu00.dtb.pwrStateResidencyTicks::UNDEFINED    521044000                       # Cumulative time (in ticks) in various power states
system.cpu00.dtb.read_accesses                      0                       # DTB read accesses
system.cpu00.dtb.read_hits                          0                       # DTB read hits
system.cpu00.dtb.read_misses                        0                       # DTB read misses
system.cpu00.dtb.write_accesses                     0                       # DTB write accesses
system.cpu00.dtb.write_hits                         0                       # DTB write hits
system.cpu00.dtb.write_misses                       0                       # DTB write misses
system.cpu00.idle_fraction                   0.005247                       # Percentage of idle cycles
system.cpu00.itb.accesses                           0                       # DTB accesses
system.cpu00.itb.hits                               0                       # DTB hits
system.cpu00.itb.misses                             0                       # DTB misses
system.cpu00.itb.pwrStateResidencyTicks::UNDEFINED    521044000                       # Cumulative time (in ticks) in various power states
system.cpu00.itb.read_accesses                      0                       # DTB read accesses
system.cpu00.itb.read_hits                          0                       # DTB read hits
system.cpu00.itb.read_misses                        0                       # DTB read misses
system.cpu00.itb.write_accesses                     0                       # DTB write accesses
system.cpu00.itb.write_hits                         0                       # DTB write hits
system.cpu00.itb.write_misses                       0                       # DTB write misses
system.cpu00.not_idle_fraction               0.994753                       # Percentage of non-idle cycles
system.cpu00.numCycles                        1042088                       # number of cpu cycles simulated
system.cpu00.numPwrStateTransitions                 2                       # Number of power state transitions
system.cpu00.numWorkItemsCompleted                  0                       # number of work items this cpu completed
system.cpu00.numWorkItemsStarted                    0                       # number of work items this cpu started
system.cpu00.num_busy_cycles             1036620.000010                       # Number of busy cycles
system.cpu00.num_conditional_control_insts        15929                       # number of instructions that are conditional controls
system.cpu00.num_fp_alu_accesses                   12                       # Number of float alu accesses
system.cpu00.num_fp_insts                          12                       # number of float instructions
system.cpu00.num_fp_register_reads                 12                       # number of times the floating registers were read
system.cpu00.num_fp_register_writes                 0                       # number of times the floating registers were written
system.cpu00.num_func_calls                      6422                       # number of times a function call or return occured
system.cpu00.num_idle_cycles              5467.999990                       # Number of idle cycles
system.cpu00.num_int_alu_accesses               98833                       # Number of integer alu accesses
system.cpu00.num_int_insts                      98833                       # number of integer instructions
system.cpu00.num_int_register_reads            120837                       # number of times the integer registers were read
system.cpu00.num_int_register_writes            64472                       # number of times the integer registers were written
system.cpu00.num_load_insts                     20284                       # Number of load instructions
system.cpu00.num_mem_refs                       36549                       # number of memory refs
system.cpu00.num_store_insts                    16265                       # Number of store instructions
system.cpu00.num_vec_alu_accesses                   0                       # Number of vector alu accesses
system.cpu00.num_vec_insts                          0                       # number of vector instructions
system.cpu00.num_vec_register_reads                 0                       # number of times the vector registers were read
system.cpu00.num_vec_register_writes                0                       # number of times the vector registers were written
system.cpu00.op_class::No_OpClass                 860      0.86%      0.86% # Class of executed instruction
system.cpu00.op_class::IntAlu                   62922     62.69%     63.55% # Class of executed instruction
system.cpu00.op_class::IntMult                     30      0.03%     63.58% # Class of executed instruction
system.cpu00.op_class::IntDiv                       6      0.01%     63.58% # Class of executed instruction
system.cpu00.op_class::FloatAdd                     0      0.00%     63.58% # Class of executed instruction
system.cpu00.op_class::FloatCmp                     0      0.00%     63.58% # Class of executed instruction
system.cpu00.op_class::FloatCvt                     0      0.00%     63.58% # Class of executed instruction
system.cpu00.op_class::FloatMult                    0      0.00%     63.58% # Class of executed instruction
system.cpu00.op_class::FloatMultAcc                 0      0.00%     63.58% # Class of executed instruction
system.cpu00.op_class::FloatDiv                     0      0.00%     63.58% # Class of executed instruction
system.cpu00.op_class::FloatMisc                    0      0.00%     63.58% # Class of executed instruction
system.cpu00.op_class::FloatSqrt                    0      0.00%     63.58% # Class of executed instruction
system.cpu00.op_class::SimdAdd                      0      0.00%     63.58% # Class of executed instruction
system.cpu00.op_class::SimdAddAcc                   0      0.00%     63.58% # Class of executed instruction
system.cpu00.op_class::SimdAlu                      0      0.00%     63.58% # Class of executed instruction
system.cpu00.op_class::SimdCmp                      0      0.00%     63.58% # Class of executed instruction
system.cpu00.op_class::SimdCvt                      0      0.00%     63.58% # Class of executed instruction
system.cpu00.op_class::SimdMisc                     0      0.00%     63.58% # Class of executed instruction
system.cpu00.op_class::SimdMult                     0      0.00%     63.58% # Class of executed instruction
system.cpu00.op_class::SimdMultAcc                  0      0.00%     63.58% # Class of executed instruction
system.cpu00.op_class::SimdShift                    0      0.00%     63.58% # Class of executed instruction
system.cpu00.op_class::SimdShiftAcc                 0      0.00%     63.58% # Class of executed instruction
system.cpu00.op_class::SimdSqrt                     0      0.00%     63.58% # Class of executed instruction
system.cpu00.op_class::SimdFloatAdd                 0      0.00%     63.58% # Class of executed instruction
system.cpu00.op_class::SimdFloatAlu                 0      0.00%     63.58% # Class of executed instruction
system.cpu00.op_class::SimdFloatCmp                 0      0.00%     63.58% # Class of executed instruction
system.cpu00.op_class::SimdFloatCvt                 0      0.00%     63.58% # Class of executed instruction
system.cpu00.op_class::SimdFloatDiv                 0      0.00%     63.58% # Class of executed instruction
system.cpu00.op_class::SimdFloatMisc                0      0.00%     63.58% # Class of executed instruction
system.cpu00.op_class::SimdFloatMult                0      0.00%     63.58% # Class of executed instruction
system.cpu00.op_class::SimdFloatMultAcc             0      0.00%     63.58% # Class of executed instruction
system.cpu00.op_class::SimdFloatSqrt                0      0.00%     63.58% # Class of executed instruction
system.cpu00.op_class::SimdAes                      0      0.00%     63.58% # Class of executed instruction
system.cpu00.op_class::SimdAesMix                   0      0.00%     63.58% # Class of executed instruction
system.cpu00.op_class::SimdSha1Hash                 0      0.00%     63.58% # Class of executed instruction
system.cpu00.op_class::SimdSha1Hash2                0      0.00%     63.58% # Class of executed instruction
system.cpu00.op_class::SimdSha256Hash               0      0.00%     63.58% # Class of executed instruction
system.cpu00.op_class::SimdSha256Hash2              0      0.00%     63.58% # Class of executed instruction
system.cpu00.op_class::SimdShaSigma2                0      0.00%     63.58% # Class of executed instruction
system.cpu00.op_class::SimdShaSigma3                0      0.00%     63.58% # Class of executed instruction
system.cpu00.op_class::MemRead                  20569     20.49%     84.08% # Class of executed instruction
system.cpu00.op_class::MemWrite                 15968     15.91%     99.99% # Class of executed instruction
system.cpu00.op_class::FloatMemRead                 0      0.00%     99.99% # Class of executed instruction
system.cpu00.op_class::FloatMemWrite               12      0.01%    100.00% # Class of executed instruction
system.cpu00.op_class::IprAccess                    0      0.00%    100.00% # Class of executed instruction
system.cpu00.op_class::InstPrefetch                 0      0.00%    100.00% # Class of executed instruction
system.cpu00.op_class::total                   100367                       # Class of executed instruction
system.cpu00.pwrStateClkGateDist::samples            1                       # Distribution of time spent in the clock gated state
system.cpu00.pwrStateClkGateDist::mean        2734000                       # Distribution of time spent in the clock gated state
system.cpu00.pwrStateClkGateDist::1000-5e+10            1    100.00%    100.00% # Distribution of time spent in the clock gated state
system.cpu00.pwrStateClkGateDist::min_value      2734000                       # Distribution of time spent in the clock gated state
system.cpu00.pwrStateClkGateDist::max_value      2734000                       # Distribution of time spent in the clock gated state
system.cpu00.pwrStateClkGateDist::total             1                       # Distribution of time spent in the clock gated state
system.cpu00.pwrStateResidencyTicks::ON     518310000                       # Cumulative time (in ticks) in various power states
system.cpu00.pwrStateResidencyTicks::CLK_GATED      2734000                       # Cumulative time (in ticks) in various power states
system.cpu00.workload.numSyscalls                  72                       # Number of system calls
system.cpu01.Branches                             849                       # Number of branches fetched
system.cpu01.committedInsts                      4525                       # Number of instructions committed
system.cpu01.committedOps                        4531                       # Number of ops (including micro ops) committed
system.cpu01.dtb.accesses                           0                       # DTB accesses
system.cpu01.dtb.hits                               0                       # DTB hits
system.cpu01.dtb.misses                             0                       # DTB misses
system.cpu01.dtb.pwrStateResidencyTicks::UNDEFINED    521044000                       # Cumulative time (in ticks) in various power states
system.cpu01.dtb.read_accesses                      0                       # DTB read accesses
system.cpu01.dtb.read_hits                          0                       # DTB read hits
system.cpu01.dtb.read_misses                        0                       # DTB read misses
system.cpu01.dtb.write_accesses                     0                       # DTB write accesses
system.cpu01.dtb.write_hits                         0                       # DTB write hits
system.cpu01.dtb.write_misses                       0                       # DTB write misses
system.cpu01.idle_fraction                   0.977348                       # Percentage of idle cycles
system.cpu01.itb.accesses                           0                       # DTB accesses
system.cpu01.itb.hits                               0                       # DTB hits
system.cpu01.itb.misses                             0                       # DTB misses
system.cpu01.itb.pwrStateResidencyTicks::UNDEFINED    521044000                       # Cumulative time (in ticks) in various power states
system.cpu01.itb.read_accesses                      0                       # DTB read accesses
system.cpu01.itb.read_hits                          0                       # DTB read hits
system.cpu01.itb.read_misses                        0                       # DTB read misses
system.cpu01.itb.write_accesses                     0                       # DTB write accesses
system.cpu01.itb.write_hits                         0                       # DTB write hits
system.cpu01.itb.write_misses                       0                       # DTB write misses
system.cpu01.not_idle_fraction               0.022652                       # Percentage of non-idle cycles
system.cpu01.numCycles                        1042088                       # number of cpu cycles simulated
system.cpu01.numPwrStateTransitions                 2                       # Number of power state transitions
system.cpu01.numWorkItemsCompleted                  0                       # number of work items this cpu completed
system.cpu01.numWorkItemsStarted                    0                       # number of work items this cpu started
system.cpu01.num_busy_cycles             23605.001955                       # Number of busy cycles
system.cpu01.num_conditional_control_insts          445                       # number of instructions that are conditional controls
system.cpu01.num_fp_alu_accesses                   12                       # Number of float alu accesses
system.cpu01.num_fp_insts                          12                       # number of float instructions
system.cpu01.num_fp_register_reads                 12                       # number of times the floating registers were read
system.cpu01.num_fp_register_writes                 0                       # number of times the floating registers were written
system.cpu01.num_func_calls                       404                       # number of times a function call or return occured
system.cpu01.num_idle_cycles             1018482.998045                       # Number of idle cycles
system.cpu01.num_int_alu_accesses                4453                       # Number of integer alu accesses
system.cpu01.num_int_insts                       4453                       # number of integer instructions
system.cpu01.num_int_register_reads              5133                       # number of times the integer registers were read
system.cpu01.num_int_register_writes             3298                       # number of times the integer registers were written
system.cpu01.num_load_insts                      1104                       # Number of load instructions
system.cpu01.num_mem_refs                        1643                       # number of memory refs
system.cpu01.num_store_insts                      539                       # Number of store instructions
system.cpu01.num_vec_alu_accesses                   0                       # Number of vector alu accesses
system.cpu01.num_vec_insts                          0                       # number of vector instructions
system.cpu01.num_vec_register_reads                 0                       # number of times the vector registers were read
system.cpu01.num_vec_register_writes                0                       # number of times the vector registers were written
system.cpu01.op_class::No_OpClass                  10      0.22%      0.22% # Class of executed instruction
system.cpu01.op_class::IntAlu                    2877     63.47%     63.69% # Class of executed instruction
system.cpu01.op_class::IntMult                      1      0.02%     63.71% # Class of executed instruction
system.cpu01.op_class::IntDiv                       2      0.04%     63.75% # Class of executed instruction
system.cpu01.op_class::FloatAdd                     0      0.00%     63.75% # Class of executed instruction
system.cpu01.op_class::FloatCmp                     0      0.00%     63.75% # Class of executed instruction
system.cpu01.op_class::FloatCvt                     0      0.00%     63.75% # Class of executed instruction
system.cpu01.op_class::FloatMult                    0      0.00%     63.75% # Class of executed instruction
system.cpu01.op_class::FloatMultAcc                 0      0.00%     63.75% # Class of executed instruction
system.cpu01.op_class::FloatDiv                     0      0.00%     63.75% # Class of executed instruction
system.cpu01.op_class::FloatMisc                    0      0.00%     63.75% # Class of executed instruction
system.cpu01.op_class::FloatSqrt                    0      0.00%     63.75% # Class of executed instruction
system.cpu01.op_class::SimdAdd                      0      0.00%     63.75% # Class of executed instruction
system.cpu01.op_class::SimdAddAcc                   0      0.00%     63.75% # Class of executed instruction
system.cpu01.op_class::SimdAlu                      0      0.00%     63.75% # Class of executed instruction
system.cpu01.op_class::SimdCmp                      0      0.00%     63.75% # Class of executed instruction
system.cpu01.op_class::SimdCvt                      0      0.00%     63.75% # Class of executed instruction
system.cpu01.op_class::SimdMisc                     0      0.00%     63.75% # Class of executed instruction
system.cpu01.op_class::SimdMult                     0      0.00%     63.75% # Class of executed instruction
system.cpu01.op_class::SimdMultAcc                  0      0.00%     63.75% # Class of executed instruction
system.cpu01.op_class::SimdShift                    0      0.00%     63.75% # Class of executed instruction
system.cpu01.op_class::SimdShiftAcc                 0      0.00%     63.75% # Class of executed instruction
system.cpu01.op_class::SimdSqrt                     0      0.00%     63.75% # Class of executed instruction
system.cpu01.op_class::SimdFloatAdd                 0      0.00%     63.75% # Class of executed instruction
system.cpu01.op_class::SimdFloatAlu                 0      0.00%     63.75% # Class of executed instruction
system.cpu01.op_class::SimdFloatCmp                 0      0.00%     63.75% # Class of executed instruction
system.cpu01.op_class::SimdFloatCvt                 0      0.00%     63.75% # Class of executed instruction
system.cpu01.op_class::SimdFloatDiv                 0      0.00%     63.75% # Class of executed instruction
system.cpu01.op_class::SimdFloatMisc                0      0.00%     63.75% # Class of executed instruction
system.cpu01.op_class::SimdFloatMult                0      0.00%     63.75% # Class of executed instruction
system.cpu01.op_class::SimdFloatMultAcc             0      0.00%     63.75% # Class of executed instruction
system.cpu01.op_class::SimdFloatSqrt                0      0.00%     63.75% # Class of executed instruction
system.cpu01.op_class::SimdAes                      0      0.00%     63.75% # Class of executed instruction
system.cpu01.op_class::SimdAesMix                   0      0.00%     63.75% # Class of executed instruction
system.cpu01.op_class::SimdSha1Hash                 0      0.00%     63.75% # Class of executed instruction
system.cpu01.op_class::SimdSha1Hash2                0      0.00%     63.75% # Class of executed instruction
system.cpu01.op_class::SimdSha256Hash               0      0.00%     63.75% # Class of executed instruction
system.cpu01.op_class::SimdSha256Hash2              0      0.00%     63.75% # Class of executed instruction
system.cpu01.op_class::SimdShaSigma2                0      0.00%     63.75% # Class of executed instruction
system.cpu01.op_class::SimdShaSigma3                0      0.00%     63.75% # Class of executed instruction
system.cpu01.op_class::MemRead                   1108     24.44%     88.20% # Class of executed instruction
system.cpu01.op_class::MemWrite                   523     11.54%     99.74% # Class of executed instruction
system.cpu01.op_class::FloatMemRead                 0      0.00%     99.74% # Class of executed instruction
system.cpu01.op_class::FloatMemWrite               12      0.26%    100.00% # Class of executed instruction
system.cpu01.op_class::IprAccess                    0      0.00%    100.00% # Class of executed instruction
system.cpu01.op_class::InstPrefetch                 0      0.00%    100.00% # Class of executed instruction
system.cpu01.op_class::total                     4533                       # Class of executed instruction
system.cpu01.pwrStateClkGateDist::samples            1                       # Distribution of time spent in the clock gated state
system.cpu01.pwrStateClkGateDist::mean      101879000                       # Distribution of time spent in the clock gated state
system.cpu01.pwrStateClkGateDist::1000-5e+10            1    100.00%    100.00% # Distribution of time spent in the clock gated state
system.cpu01.pwrStateClkGateDist::min_value    101879000                       # Distribution of time spent in the clock gated state
system.cpu01.pwrStateClkGateDist::max_value    101879000                       # Distribution of time spent in the clock gated state
system.cpu01.pwrStateClkGateDist::total             1                       # Distribution of time spent in the clock gated state
system.cpu01.pwrStateResidencyTicks::ON     419165000                       # Cumulative time (in ticks) in various power states
system.cpu01.pwrStateResidencyTicks::CLK_GATED    101879000                       # Cumulative time (in ticks) in various power states
system.cpu02.Branches                             848                       # Number of branches fetched
system.cpu02.committedInsts                      4516                       # Number of instructions committed
system.cpu02.committedOps                        4522                       # Number of ops (including micro ops) committed
system.cpu02.dtb.accesses                           0                       # DTB accesses
system.cpu02.dtb.hits                               0                       # DTB hits
system.cpu02.dtb.misses                             0                       # DTB misses
system.cpu02.dtb.pwrStateResidencyTicks::UNDEFINED    521044000                       # Cumulative time (in ticks) in various power states
system.cpu02.dtb.read_accesses                      0                       # DTB read accesses
system.cpu02.dtb.read_hits                          0                       # DTB read hits
system.cpu02.dtb.read_misses                        0                       # DTB read misses
system.cpu02.dtb.write_accesses                     0                       # DTB write accesses
system.cpu02.dtb.write_hits                         0                       # DTB write hits
system.cpu02.dtb.write_misses                       0                       # DTB write misses
system.cpu02.idle_fraction                   0.980796                       # Percentage of idle cycles
system.cpu02.itb.accesses                           0                       # DTB accesses
system.cpu02.itb.hits                               0                       # DTB hits
system.cpu02.itb.misses                             0                       # DTB misses
system.cpu02.itb.pwrStateResidencyTicks::UNDEFINED    521044000                       # Cumulative time (in ticks) in various power states
system.cpu02.itb.read_accesses                      0                       # DTB read accesses
system.cpu02.itb.read_hits                          0                       # DTB read hits
system.cpu02.itb.read_misses                        0                       # DTB read misses
system.cpu02.itb.write_accesses                     0                       # DTB write accesses
system.cpu02.itb.write_hits                         0                       # DTB write hits
system.cpu02.itb.write_misses                       0                       # DTB write misses
system.cpu02.not_idle_fraction               0.019204                       # Percentage of non-idle cycles
system.cpu02.numCycles                        1042088                       # number of cpu cycles simulated
system.cpu02.numPwrStateTransitions                 2                       # Number of power state transitions
system.cpu02.numWorkItemsCompleted                  0                       # number of work items this cpu completed
system.cpu02.numWorkItemsStarted                    0                       # number of work items this cpu started
system.cpu02.num_busy_cycles             20012.001962                       # Number of busy cycles
system.cpu02.num_conditional_control_insts          444                       # number of instructions that are conditional controls
system.cpu02.num_fp_alu_accesses                   12                       # Number of float alu accesses
system.cpu02.num_fp_insts                          12                       # number of float instructions
system.cpu02.num_fp_register_reads                 12                       # number of times the floating registers were read
system.cpu02.num_fp_register_writes                 0                       # number of times the floating registers were written
system.cpu02.num_func_calls                       404                       # number of times a function call or return occured
system.cpu02.num_idle_cycles             1022075.998038                       # Number of idle cycles
system.cpu02.num_int_alu_accesses                4444                       # Number of integer alu accesses
system.cpu02.num_int_insts                       4444                       # number of integer instructions
system.cpu02.num_int_register_reads              5123                       # number of times the integer registers were read
system.cpu02.num_int_register_writes             3292                       # number of times the integer registers were written
system.cpu02.num_load_insts                      1103                       # Number of load instructions
system.cpu02.num_mem_refs                        1640                       # number of memory refs
system.cpu02.num_store_insts                      537                       # Number of store instructions
system.cpu02.num_vec_alu_accesses                   0                       # Number of vector alu accesses
system.cpu02.num_vec_insts                          0                       # number of vector instructions
system.cpu02.num_vec_register_reads                 0                       # number of times the vector registers were read
system.cpu02.num_vec_register_writes                0                       # number of times the vector registers were written
system.cpu02.op_class::No_OpClass                  10      0.22%      0.22% # Class of executed instruction
system.cpu02.op_class::IntAlu                    2871     63.46%     63.68% # Class of executed instruction
system.cpu02.op_class::IntMult                      1      0.02%     63.70% # Class of executed instruction
system.cpu02.op_class::IntDiv                       2      0.04%     63.75% # Class of executed instruction
system.cpu02.op_class::FloatAdd                     0      0.00%     63.75% # Class of executed instruction
system.cpu02.op_class::FloatCmp                     0      0.00%     63.75% # Class of executed instruction
system.cpu02.op_class::FloatCvt                     0      0.00%     63.75% # Class of executed instruction
system.cpu02.op_class::FloatMult                    0      0.00%     63.75% # Class of executed instruction
system.cpu02.op_class::FloatMultAcc                 0      0.00%     63.75% # Class of executed instruction
system.cpu02.op_class::FloatDiv                     0      0.00%     63.75% # Class of executed instruction
system.cpu02.op_class::FloatMisc                    0      0.00%     63.75% # Class of executed instruction
system.cpu02.op_class::FloatSqrt                    0      0.00%     63.75% # Class of executed instruction
system.cpu02.op_class::SimdAdd                      0      0.00%     63.75% # Class of executed instruction
system.cpu02.op_class::SimdAddAcc                   0      0.00%     63.75% # Class of executed instruction
system.cpu02.op_class::SimdAlu                      0      0.00%     63.75% # Class of executed instruction
system.cpu02.op_class::SimdCmp                      0      0.00%     63.75% # Class of executed instruction
system.cpu02.op_class::SimdCvt                      0      0.00%     63.75% # Class of executed instruction
system.cpu02.op_class::SimdMisc                     0      0.00%     63.75% # Class of executed instruction
system.cpu02.op_class::SimdMult                     0      0.00%     63.75% # Class of executed instruction
system.cpu02.op_class::SimdMultAcc                  0      0.00%     63.75% # Class of executed instruction
system.cpu02.op_class::SimdShift                    0      0.00%     63.75% # Class of executed instruction
system.cpu02.op_class::SimdShiftAcc                 0      0.00%     63.75% # Class of executed instruction
system.cpu02.op_class::SimdSqrt                     0      0.00%     63.75% # Class of executed instruction
system.cpu02.op_class::SimdFloatAdd                 0      0.00%     63.75% # Class of executed instruction
system.cpu02.op_class::SimdFloatAlu                 0      0.00%     63.75% # Class of executed instruction
system.cpu02.op_class::SimdFloatCmp                 0      0.00%     63.75% # Class of executed instruction
system.cpu02.op_class::SimdFloatCvt                 0      0.00%     63.75% # Class of executed instruction
system.cpu02.op_class::SimdFloatDiv                 0      0.00%     63.75% # Class of executed instruction
system.cpu02.op_class::SimdFloatMisc                0      0.00%     63.75% # Class of executed instruction
system.cpu02.op_class::SimdFloatMult                0      0.00%     63.75% # Class of executed instruction
system.cpu02.op_class::SimdFloatMultAcc             0      0.00%     63.75% # Class of executed instruction
system.cpu02.op_class::SimdFloatSqrt                0      0.00%     63.75% # Class of executed instruction
system.cpu02.op_class::SimdAes                      0      0.00%     63.75% # Class of executed instruction
system.cpu02.op_class::SimdAesMix                   0      0.00%     63.75% # Class of executed instruction
system.cpu02.op_class::SimdSha1Hash                 0      0.00%     63.75% # Class of executed instruction
system.cpu02.op_class::SimdSha1Hash2                0      0.00%     63.75% # Class of executed instruction
system.cpu02.op_class::SimdSha256Hash               0      0.00%     63.75% # Class of executed instruction
system.cpu02.op_class::SimdSha256Hash2              0      0.00%     63.75% # Class of executed instruction
system.cpu02.op_class::SimdShaSigma2                0      0.00%     63.75% # Class of executed instruction
system.cpu02.op_class::SimdShaSigma3                0      0.00%     63.75% # Class of executed instruction
system.cpu02.op_class::MemRead                   1107     24.47%     88.22% # Class of executed instruction
system.cpu02.op_class::MemWrite                   521     11.52%     99.73% # Class of executed instruction
system.cpu02.op_class::FloatMemRead                 0      0.00%     99.73% # Class of executed instruction
system.cpu02.op_class::FloatMemWrite               12      0.27%    100.00% # Class of executed instruction
system.cpu02.op_class::IprAccess                    0      0.00%    100.00% # Class of executed instruction
system.cpu02.op_class::InstPrefetch                 0      0.00%    100.00% # Class of executed instruction
system.cpu02.op_class::total                     4524                       # Class of executed instruction
system.cpu02.pwrStateClkGateDist::samples            1                       # Distribution of time spent in the clock gated state
system.cpu02.pwrStateClkGateDist::mean       96774000                       # Distribution of time spent in the clock gated state
system.cpu02.pwrStateClkGateDist::1000-5e+10            1    100.00%    100.00% # Distribution of time spent in the clock gated state
system.cpu02.pwrStateClkGateDist::min_value     96774000                       # Distribution of time spent in the clock gated state
system.cpu02.pwrStateClkGateDist::max_value     96774000                       # Distribution of time spent in the clock gated state
system.cpu02.pwrStateClkGateDist::total             1                       # Distribution of time spent in the clock gated state
system.cpu02.pwrStateResidencyTicks::ON     424270000                       # Cumulative time (in ticks) in various power states
system.cpu02.pwrStateResidencyTicks::CLK_GATED     96774000                       # Cumulative time (in ticks) in various power states
system.cpu03.Branches                             855                       # Number of branches fetched
system.cpu03.committedInsts                      4517                       # Number of instructions committed
system.cpu03.committedOps                        4523                       # Number of ops (including micro ops) committed
system.cpu03.dtb.accesses                           0                       # DTB accesses
system.cpu03.dtb.hits                               0                       # DTB hits
system.cpu03.dtb.misses                             0                       # DTB misses
system.cpu03.dtb.pwrStateResidencyTicks::UNDEFINED    521044000                       # Cumulative time (in ticks) in various power states
system.cpu03.dtb.read_accesses                      0                       # DTB read accesses
system.cpu03.dtb.read_hits                          0                       # DTB read hits
system.cpu03.dtb.read_misses                        0                       # DTB read misses
system.cpu03.dtb.write_accesses                     0                       # DTB write accesses
system.cpu03.dtb.write_hits                         0                       # DTB write hits
system.cpu03.dtb.write_misses                       0                       # DTB write misses
system.cpu03.idle_fraction                   0.980537                       # Percentage of idle cycles
system.cpu03.itb.accesses                           0                       # DTB accesses
system.cpu03.itb.hits                               0                       # DTB hits
system.cpu03.itb.misses                             0                       # DTB misses
system.cpu03.itb.pwrStateResidencyTicks::UNDEFINED    521044000                       # Cumulative time (in ticks) in various power states
system.cpu03.itb.read_accesses                      0                       # DTB read accesses
system.cpu03.itb.read_hits                          0                       # DTB read hits
system.cpu03.itb.read_misses                        0                       # DTB read misses
system.cpu03.itb.write_accesses                     0                       # DTB write accesses
system.cpu03.itb.write_hits                         0                       # DTB write hits
system.cpu03.itb.write_misses                       0                       # DTB write misses
system.cpu03.not_idle_fraction               0.019463                       # Percentage of non-idle cycles
system.cpu03.numCycles                        1042088                       # number of cpu cycles simulated
system.cpu03.numPwrStateTransitions                 2                       # Number of power state transitions
system.cpu03.numWorkItemsCompleted                  0                       # number of work items this cpu completed
system.cpu03.numWorkItemsStarted                    0                       # number of work items this cpu started
system.cpu03.num_busy_cycles             20282.001961                       # Number of busy cycles
system.cpu03.num_conditional_control_insts          434                       # number of instructions that are conditional controls
system.cpu03.num_fp_alu_accesses                   12                       # Number of float alu accesses
system.cpu03.num_fp_insts                          12                       # number of float instructions
system.cpu03.num_fp_register_reads                 12                       # number of times the floating registers were read
system.cpu03.num_fp_register_writes                 0                       # number of times the floating registers were written
system.cpu03.num_func_calls                       421                       # number of times a function call or return occured
system.cpu03.num_idle_cycles             1021805.998039                       # Number of idle cycles
system.cpu03.num_int_alu_accesses                4429                       # Number of integer alu accesses
system.cpu03.num_int_insts                       4429                       # number of integer instructions
system.cpu03.num_int_register_reads              5108                       # number of times the integer registers were read
system.cpu03.num_int_register_writes             3284                       # number of times the integer registers were written
system.cpu03.num_load_insts                      1102                       # Number of load instructions
system.cpu03.num_mem_refs                        1637                       # number of memory refs
system.cpu03.num_store_insts                      535                       # Number of store instructions
system.cpu03.num_vec_alu_accesses                   0                       # Number of vector alu accesses
system.cpu03.num_vec_insts                          0                       # number of vector instructions
system.cpu03.num_vec_register_reads                 0                       # number of times the vector registers were read
system.cpu03.num_vec_register_writes                0                       # number of times the vector registers were written
system.cpu03.op_class::No_OpClass                  10      0.22%      0.22% # Class of executed instruction
system.cpu03.op_class::IntAlu                    2875     63.54%     63.76% # Class of executed instruction
system.cpu03.op_class::IntMult                      1      0.02%     63.78% # Class of executed instruction
system.cpu03.op_class::IntDiv                       2      0.04%     63.82% # Class of executed instruction
system.cpu03.op_class::FloatAdd                     0      0.00%     63.82% # Class of executed instruction
system.cpu03.op_class::FloatCmp                     0      0.00%     63.82% # Class of executed instruction
system.cpu03.op_class::FloatCvt                     0      0.00%     63.82% # Class of executed instruction
system.cpu03.op_class::FloatMult                    0      0.00%     63.82% # Class of executed instruction
system.cpu03.op_class::FloatMultAcc                 0      0.00%     63.82% # Class of executed instruction
system.cpu03.op_class::FloatDiv                     0      0.00%     63.82% # Class of executed instruction
system.cpu03.op_class::FloatMisc                    0      0.00%     63.82% # Class of executed instruction
system.cpu03.op_class::FloatSqrt                    0      0.00%     63.82% # Class of executed instruction
system.cpu03.op_class::SimdAdd                      0      0.00%     63.82% # Class of executed instruction
system.cpu03.op_class::SimdAddAcc                   0      0.00%     63.82% # Class of executed instruction
system.cpu03.op_class::SimdAlu                      0      0.00%     63.82% # Class of executed instruction
system.cpu03.op_class::SimdCmp                      0      0.00%     63.82% # Class of executed instruction
system.cpu03.op_class::SimdCvt                      0      0.00%     63.82% # Class of executed instruction
system.cpu03.op_class::SimdMisc                     0      0.00%     63.82% # Class of executed instruction
system.cpu03.op_class::SimdMult                     0      0.00%     63.82% # Class of executed instruction
system.cpu03.op_class::SimdMultAcc                  0      0.00%     63.82% # Class of executed instruction
system.cpu03.op_class::SimdShift                    0      0.00%     63.82% # Class of executed instruction
system.cpu03.op_class::SimdShiftAcc                 0      0.00%     63.82% # Class of executed instruction
system.cpu03.op_class::SimdSqrt                     0      0.00%     63.82% # Class of executed instruction
system.cpu03.op_class::SimdFloatAdd                 0      0.00%     63.82% # Class of executed instruction
system.cpu03.op_class::SimdFloatAlu                 0      0.00%     63.82% # Class of executed instruction
system.cpu03.op_class::SimdFloatCmp                 0      0.00%     63.82% # Class of executed instruction
system.cpu03.op_class::SimdFloatCvt                 0      0.00%     63.82% # Class of executed instruction
system.cpu03.op_class::SimdFloatDiv                 0      0.00%     63.82% # Class of executed instruction
system.cpu03.op_class::SimdFloatMisc                0      0.00%     63.82% # Class of executed instruction
system.cpu03.op_class::SimdFloatMult                0      0.00%     63.82% # Class of executed instruction
system.cpu03.op_class::SimdFloatMultAcc             0      0.00%     63.82% # Class of executed instruction
system.cpu03.op_class::SimdFloatSqrt                0      0.00%     63.82% # Class of executed instruction
system.cpu03.op_class::SimdAes                      0      0.00%     63.82% # Class of executed instruction
system.cpu03.op_class::SimdAesMix                   0      0.00%     63.82% # Class of executed instruction
system.cpu03.op_class::SimdSha1Hash                 0      0.00%     63.82% # Class of executed instruction
system.cpu03.op_class::SimdSha1Hash2                0      0.00%     63.82% # Class of executed instruction
system.cpu03.op_class::SimdSha256Hash               0      0.00%     63.82% # Class of executed instruction
system.cpu03.op_class::SimdSha256Hash2              0      0.00%     63.82% # Class of executed instruction
system.cpu03.op_class::SimdShaSigma2                0      0.00%     63.82% # Class of executed instruction
system.cpu03.op_class::SimdShaSigma3                0      0.00%     63.82% # Class of executed instruction
system.cpu03.op_class::MemRead                   1106     24.44%     88.27% # Class of executed instruction
system.cpu03.op_class::MemWrite                   519     11.47%     99.73% # Class of executed instruction
system.cpu03.op_class::FloatMemRead                 0      0.00%     99.73% # Class of executed instruction
system.cpu03.op_class::FloatMemWrite               12      0.27%    100.00% # Class of executed instruction
system.cpu03.op_class::IprAccess                    0      0.00%    100.00% # Class of executed instruction
system.cpu03.op_class::InstPrefetch                 0      0.00%    100.00% # Class of executed instruction
system.cpu03.op_class::total                     4525                       # Class of executed instruction
system.cpu03.pwrStateClkGateDist::samples            1                       # Distribution of time spent in the clock gated state
system.cpu03.pwrStateClkGateDist::mean       89473500                       # Distribution of time spent in the clock gated state
system.cpu03.pwrStateClkGateDist::1000-5e+10            1    100.00%    100.00% # Distribution of time spent in the clock gated state
system.cpu03.pwrStateClkGateDist::min_value     89473500                       # Distribution of time spent in the clock gated state
system.cpu03.pwrStateClkGateDist::max_value     89473500                       # Distribution of time spent in the clock gated state
system.cpu03.pwrStateClkGateDist::total             1                       # Distribution of time spent in the clock gated state
system.cpu03.pwrStateResidencyTicks::ON     431570500                       # Cumulative time (in ticks) in various power states
system.cpu03.pwrStateResidencyTicks::CLK_GATED     89473500                       # Cumulative time (in ticks) in various power states
system.cpu04.Branches                             842                       # Number of branches fetched
system.cpu04.committedInsts                      4447                       # Number of instructions committed
system.cpu04.committedOps                        4453                       # Number of ops (including micro ops) committed
system.cpu04.dtb.accesses                           0                       # DTB accesses
system.cpu04.dtb.hits                               0                       # DTB hits
system.cpu04.dtb.misses                             0                       # DTB misses
system.cpu04.dtb.pwrStateResidencyTicks::UNDEFINED    521044000                       # Cumulative time (in ticks) in various power states
system.cpu04.dtb.read_accesses                      0                       # DTB read accesses
system.cpu04.dtb.read_hits                          0                       # DTB read hits
system.cpu04.dtb.read_misses                        0                       # DTB read misses
system.cpu04.dtb.write_accesses                     0                       # DTB write accesses
system.cpu04.dtb.write_hits                         0                       # DTB write hits
system.cpu04.dtb.write_misses                       0                       # DTB write misses
system.cpu04.idle_fraction                   0.980734                       # Percentage of idle cycles
system.cpu04.itb.accesses                           0                       # DTB accesses
system.cpu04.itb.hits                               0                       # DTB hits
system.cpu04.itb.misses                             0                       # DTB misses
system.cpu04.itb.pwrStateResidencyTicks::UNDEFINED    521044000                       # Cumulative time (in ticks) in various power states
system.cpu04.itb.read_accesses                      0                       # DTB read accesses
system.cpu04.itb.read_hits                          0                       # DTB read hits
system.cpu04.itb.read_misses                        0                       # DTB read misses
system.cpu04.itb.write_accesses                     0                       # DTB write accesses
system.cpu04.itb.write_hits                         0                       # DTB write hits
system.cpu04.itb.write_misses                       0                       # DTB write misses
system.cpu04.not_idle_fraction               0.019266                       # Percentage of non-idle cycles
system.cpu04.numCycles                        1042088                       # number of cpu cycles simulated
system.cpu04.numPwrStateTransitions                 2                       # Number of power state transitions
system.cpu04.numWorkItemsCompleted                  0                       # number of work items this cpu completed
system.cpu04.numWorkItemsStarted                    0                       # number of work items this cpu started
system.cpu04.num_busy_cycles             20077.001961                       # Number of busy cycles
system.cpu04.num_conditional_control_insts          426                       # number of instructions that are conditional controls
system.cpu04.num_fp_alu_accesses                   12                       # Number of float alu accesses
system.cpu04.num_fp_insts                          12                       # number of float instructions
system.cpu04.num_fp_register_reads                 12                       # number of times the floating registers were read
system.cpu04.num_fp_register_writes                 0                       # number of times the floating registers were written
system.cpu04.num_func_calls                       416                       # number of times a function call or return occured
system.cpu04.num_idle_cycles             1022010.998039                       # Number of idle cycles
system.cpu04.num_int_alu_accesses                4359                       # Number of integer alu accesses
system.cpu04.num_int_insts                       4359                       # number of integer instructions
system.cpu04.num_int_register_reads              5029                       # number of times the integer registers were read
system.cpu04.num_int_register_writes             3232                       # number of times the integer registers were written
system.cpu04.num_load_insts                      1085                       # Number of load instructions
system.cpu04.num_mem_refs                        1613                       # number of memory refs
system.cpu04.num_store_insts                      528                       # Number of store instructions
system.cpu04.num_vec_alu_accesses                   0                       # Number of vector alu accesses
system.cpu04.num_vec_insts                          0                       # number of vector instructions
system.cpu04.num_vec_register_reads                 0                       # number of times the vector registers were read
system.cpu04.num_vec_register_writes                0                       # number of times the vector registers were written
system.cpu04.op_class::No_OpClass                  10      0.22%      0.22% # Class of executed instruction
system.cpu04.op_class::IntAlu                    2829     63.50%     63.73% # Class of executed instruction
system.cpu04.op_class::IntMult                      1      0.02%     63.75% # Class of executed instruction
system.cpu04.op_class::IntDiv                       2      0.04%     63.79% # Class of executed instruction
system.cpu04.op_class::FloatAdd                     0      0.00%     63.79% # Class of executed instruction
system.cpu04.op_class::FloatCmp                     0      0.00%     63.79% # Class of executed instruction
system.cpu04.op_class::FloatCvt                     0      0.00%     63.79% # Class of executed instruction
system.cpu04.op_class::FloatMult                    0      0.00%     63.79% # Class of executed instruction
system.cpu04.op_class::FloatMultAcc                 0      0.00%     63.79% # Class of executed instruction
system.cpu04.op_class::FloatDiv                     0      0.00%     63.79% # Class of executed instruction
system.cpu04.op_class::FloatMisc                    0      0.00%     63.79% # Class of executed instruction
system.cpu04.op_class::FloatSqrt                    0      0.00%     63.79% # Class of executed instruction
system.cpu04.op_class::SimdAdd                      0      0.00%     63.79% # Class of executed instruction
system.cpu04.op_class::SimdAddAcc                   0      0.00%     63.79% # Class of executed instruction
system.cpu04.op_class::SimdAlu                      0      0.00%     63.79% # Class of executed instruction
system.cpu04.op_class::SimdCmp                      0      0.00%     63.79% # Class of executed instruction
system.cpu04.op_class::SimdCvt                      0      0.00%     63.79% # Class of executed instruction
system.cpu04.op_class::SimdMisc                     0      0.00%     63.79% # Class of executed instruction
system.cpu04.op_class::SimdMult                     0      0.00%     63.79% # Class of executed instruction
system.cpu04.op_class::SimdMultAcc                  0      0.00%     63.79% # Class of executed instruction
system.cpu04.op_class::SimdShift                    0      0.00%     63.79% # Class of executed instruction
system.cpu04.op_class::SimdShiftAcc                 0      0.00%     63.79% # Class of executed instruction
system.cpu04.op_class::SimdSqrt                     0      0.00%     63.79% # Class of executed instruction
system.cpu04.op_class::SimdFloatAdd                 0      0.00%     63.79% # Class of executed instruction
system.cpu04.op_class::SimdFloatAlu                 0      0.00%     63.79% # Class of executed instruction
system.cpu04.op_class::SimdFloatCmp                 0      0.00%     63.79% # Class of executed instruction
system.cpu04.op_class::SimdFloatCvt                 0      0.00%     63.79% # Class of executed instruction
system.cpu04.op_class::SimdFloatDiv                 0      0.00%     63.79% # Class of executed instruction
system.cpu04.op_class::SimdFloatMisc                0      0.00%     63.79% # Class of executed instruction
system.cpu04.op_class::SimdFloatMult                0      0.00%     63.79% # Class of executed instruction
system.cpu04.op_class::SimdFloatMultAcc             0      0.00%     63.79% # Class of executed instruction
system.cpu04.op_class::SimdFloatSqrt                0      0.00%     63.79% # Class of executed instruction
system.cpu04.op_class::SimdAes                      0      0.00%     63.79% # Class of executed instruction
system.cpu04.op_class::SimdAesMix                   0      0.00%     63.79% # Class of executed instruction
system.cpu04.op_class::SimdSha1Hash                 0      0.00%     63.79% # Class of executed instruction
system.cpu04.op_class::SimdSha1Hash2                0      0.00%     63.79% # Class of executed instruction
system.cpu04.op_class::SimdSha256Hash               0      0.00%     63.79% # Class of executed instruction
system.cpu04.op_class::SimdSha256Hash2              0      0.00%     63.79% # Class of executed instruction
system.cpu04.op_class::SimdShaSigma2                0      0.00%     63.79% # Class of executed instruction
system.cpu04.op_class::SimdShaSigma3                0      0.00%     63.79% # Class of executed instruction
system.cpu04.op_class::MemRead                   1089     24.44%     88.24% # Class of executed instruction
system.cpu04.op_class::MemWrite                   512     11.49%     99.73% # Class of executed instruction
system.cpu04.op_class::FloatMemRead                 0      0.00%     99.73% # Class of executed instruction
system.cpu04.op_class::FloatMemWrite               12      0.27%    100.00% # Class of executed instruction
system.cpu04.op_class::IprAccess                    0      0.00%    100.00% # Class of executed instruction
system.cpu04.op_class::InstPrefetch                 0      0.00%    100.00% # Class of executed instruction
system.cpu04.op_class::total                     4455                       # Class of executed instruction
system.cpu04.pwrStateClkGateDist::samples            1                       # Distribution of time spent in the clock gated state
system.cpu04.pwrStateClkGateDist::mean       81908500                       # Distribution of time spent in the clock gated state
system.cpu04.pwrStateClkGateDist::1000-5e+10            1    100.00%    100.00% # Distribution of time spent in the clock gated state
system.cpu04.pwrStateClkGateDist::min_value     81908500                       # Distribution of time spent in the clock gated state
system.cpu04.pwrStateClkGateDist::max_value     81908500                       # Distribution of time spent in the clock gated state
system.cpu04.pwrStateClkGateDist::total             1                       # Distribution of time spent in the clock gated state
system.cpu04.pwrStateResidencyTicks::ON     439135500                       # Cumulative time (in ticks) in various power states
system.cpu04.pwrStateResidencyTicks::CLK_GATED     81908500                       # Cumulative time (in ticks) in various power states
system.cpu05.Branches                             848                       # Number of branches fetched
system.cpu05.committedInsts                      4486                       # Number of instructions committed
system.cpu05.committedOps                        4492                       # Number of ops (including micro ops) committed
system.cpu05.dtb.accesses                           0                       # DTB accesses
system.cpu05.dtb.hits                               0                       # DTB hits
system.cpu05.dtb.misses                             0                       # DTB misses
system.cpu05.dtb.pwrStateResidencyTicks::UNDEFINED    521044000                       # Cumulative time (in ticks) in various power states
system.cpu05.dtb.read_accesses                      0                       # DTB read accesses
system.cpu05.dtb.read_hits                          0                       # DTB read hits
system.cpu05.dtb.read_misses                        0                       # DTB read misses
system.cpu05.dtb.write_accesses                     0                       # DTB write accesses
system.cpu05.dtb.write_hits                         0                       # DTB write hits
system.cpu05.dtb.write_misses                       0                       # DTB write misses
system.cpu05.idle_fraction                   0.981110                       # Percentage of idle cycles
system.cpu05.itb.accesses                           0                       # DTB accesses
system.cpu05.itb.hits                               0                       # DTB hits
system.cpu05.itb.misses                             0                       # DTB misses
system.cpu05.itb.pwrStateResidencyTicks::UNDEFINED    521044000                       # Cumulative time (in ticks) in various power states
system.cpu05.itb.read_accesses                      0                       # DTB read accesses
system.cpu05.itb.read_hits                          0                       # DTB read hits
system.cpu05.itb.read_misses                        0                       # DTB read misses
system.cpu05.itb.write_accesses                     0                       # DTB write accesses
system.cpu05.itb.write_hits                         0                       # DTB write hits
system.cpu05.itb.write_misses                       0                       # DTB write misses
system.cpu05.not_idle_fraction               0.018890                       # Percentage of non-idle cycles
system.cpu05.numCycles                        1042087                       # number of cpu cycles simulated
system.cpu05.numPwrStateTransitions                 2                       # Number of power state transitions
system.cpu05.numWorkItemsCompleted                  0                       # number of work items this cpu completed
system.cpu05.numWorkItemsStarted                    0                       # number of work items this cpu started
system.cpu05.num_busy_cycles             19684.983072                       # Number of busy cycles
system.cpu05.num_conditional_control_insts          432                       # number of instructions that are conditional controls
system.cpu05.num_fp_alu_accesses                   12                       # Number of float alu accesses
system.cpu05.num_fp_insts                          12                       # number of float instructions
system.cpu05.num_fp_register_reads                 12                       # number of times the floating registers were read
system.cpu05.num_fp_register_writes                 0                       # number of times the floating registers were written
system.cpu05.num_func_calls                       416                       # number of times a function call or return occured
system.cpu05.num_idle_cycles             1022402.016928                       # Number of idle cycles
system.cpu05.num_int_alu_accesses                4400                       # Number of integer alu accesses
system.cpu05.num_int_insts                       4400                       # number of integer instructions
system.cpu05.num_int_register_reads              5076                       # number of times the integer registers were read
system.cpu05.num_int_register_writes             3262                       # number of times the integer registers were written
system.cpu05.num_load_insts                      1096                       # Number of load instructions
system.cpu05.num_mem_refs                        1628                       # number of memory refs
system.cpu05.num_store_insts                      532                       # Number of store instructions
system.cpu05.num_vec_alu_accesses                   0                       # Number of vector alu accesses
system.cpu05.num_vec_insts                          0                       # number of vector instructions
system.cpu05.num_vec_register_reads                 0                       # number of times the vector registers were read
system.cpu05.num_vec_register_writes                0                       # number of times the vector registers were written
system.cpu05.op_class::No_OpClass                  10      0.22%      0.22% # Class of executed instruction
system.cpu05.op_class::IntAlu                    2853     63.48%     63.71% # Class of executed instruction
system.cpu05.op_class::IntMult                      1      0.02%     63.73% # Class of executed instruction
system.cpu05.op_class::IntDiv                       2      0.04%     63.77% # Class of executed instruction
system.cpu05.op_class::FloatAdd                     0      0.00%     63.77% # Class of executed instruction
system.cpu05.op_class::FloatCmp                     0      0.00%     63.77% # Class of executed instruction
system.cpu05.op_class::FloatCvt                     0      0.00%     63.77% # Class of executed instruction
system.cpu05.op_class::FloatMult                    0      0.00%     63.77% # Class of executed instruction
system.cpu05.op_class::FloatMultAcc                 0      0.00%     63.77% # Class of executed instruction
system.cpu05.op_class::FloatDiv                     0      0.00%     63.77% # Class of executed instruction
system.cpu05.op_class::FloatMisc                    0      0.00%     63.77% # Class of executed instruction
system.cpu05.op_class::FloatSqrt                    0      0.00%     63.77% # Class of executed instruction
system.cpu05.op_class::SimdAdd                      0      0.00%     63.77% # Class of executed instruction
system.cpu05.op_class::SimdAddAcc                   0      0.00%     63.77% # Class of executed instruction
system.cpu05.op_class::SimdAlu                      0      0.00%     63.77% # Class of executed instruction
system.cpu05.op_class::SimdCmp                      0      0.00%     63.77% # Class of executed instruction
system.cpu05.op_class::SimdCvt                      0      0.00%     63.77% # Class of executed instruction
system.cpu05.op_class::SimdMisc                     0      0.00%     63.77% # Class of executed instruction
system.cpu05.op_class::SimdMult                     0      0.00%     63.77% # Class of executed instruction
system.cpu05.op_class::SimdMultAcc                  0      0.00%     63.77% # Class of executed instruction
system.cpu05.op_class::SimdShift                    0      0.00%     63.77% # Class of executed instruction
system.cpu05.op_class::SimdShiftAcc                 0      0.00%     63.77% # Class of executed instruction
system.cpu05.op_class::SimdSqrt                     0      0.00%     63.77% # Class of executed instruction
system.cpu05.op_class::SimdFloatAdd                 0      0.00%     63.77% # Class of executed instruction
system.cpu05.op_class::SimdFloatAlu                 0      0.00%     63.77% # Class of executed instruction
system.cpu05.op_class::SimdFloatCmp                 0      0.00%     63.77% # Class of executed instruction
system.cpu05.op_class::SimdFloatCvt                 0      0.00%     63.77% # Class of executed instruction
system.cpu05.op_class::SimdFloatDiv                 0      0.00%     63.77% # Class of executed instruction
system.cpu05.op_class::SimdFloatMisc                0      0.00%     63.77% # Class of executed instruction
system.cpu05.op_class::SimdFloatMult                0      0.00%     63.77% # Class of executed instruction
system.cpu05.op_class::SimdFloatMultAcc             0      0.00%     63.77% # Class of executed instruction
system.cpu05.op_class::SimdFloatSqrt                0      0.00%     63.77% # Class of executed instruction
system.cpu05.op_class::SimdAes                      0      0.00%     63.77% # Class of executed instruction
system.cpu05.op_class::SimdAesMix                   0      0.00%     63.77% # Class of executed instruction
system.cpu05.op_class::SimdSha1Hash                 0      0.00%     63.77% # Class of executed instruction
system.cpu05.op_class::SimdSha1Hash2                0      0.00%     63.77% # Class of executed instruction
system.cpu05.op_class::SimdSha256Hash               0      0.00%     63.77% # Class of executed instruction
system.cpu05.op_class::SimdSha256Hash2              0      0.00%     63.77% # Class of executed instruction
system.cpu05.op_class::SimdShaSigma2                0      0.00%     63.77% # Class of executed instruction
system.cpu05.op_class::SimdShaSigma3                0      0.00%     63.77% # Class of executed instruction
system.cpu05.op_class::MemRead                   1100     24.48%     88.25% # Class of executed instruction
system.cpu05.op_class::MemWrite                   516     11.48%     99.73% # Class of executed instruction
system.cpu05.op_class::FloatMemRead                 0      0.00%     99.73% # Class of executed instruction
system.cpu05.op_class::FloatMemWrite               12      0.27%    100.00% # Class of executed instruction
system.cpu05.op_class::IprAccess                    0      0.00%    100.00% # Class of executed instruction
system.cpu05.op_class::InstPrefetch                 0      0.00%    100.00% # Class of executed instruction
system.cpu05.op_class::total                     4494                       # Class of executed instruction
system.cpu05.pwrStateClkGateDist::samples            1                       # Distribution of time spent in the clock gated state
system.cpu05.pwrStateClkGateDist::mean       75149500                       # Distribution of time spent in the clock gated state
system.cpu05.pwrStateClkGateDist::1000-5e+10            1    100.00%    100.00% # Distribution of time spent in the clock gated state
system.cpu05.pwrStateClkGateDist::min_value     75149500                       # Distribution of time spent in the clock gated state
system.cpu05.pwrStateClkGateDist::max_value     75149500                       # Distribution of time spent in the clock gated state
system.cpu05.pwrStateClkGateDist::total             1                       # Distribution of time spent in the clock gated state
system.cpu05.pwrStateResidencyTicks::ON     445894500                       # Cumulative time (in ticks) in various power states
system.cpu05.pwrStateResidencyTicks::CLK_GATED     75149500                       # Cumulative time (in ticks) in various power states
system.cpu06.Branches                             842                       # Number of branches fetched
system.cpu06.committedInsts                      4446                       # Number of instructions committed
system.cpu06.committedOps                        4452                       # Number of ops (including micro ops) committed
system.cpu06.dtb.accesses                           0                       # DTB accesses
system.cpu06.dtb.hits                               0                       # DTB hits
system.cpu06.dtb.misses                             0                       # DTB misses
system.cpu06.dtb.pwrStateResidencyTicks::UNDEFINED    521044000                       # Cumulative time (in ticks) in various power states
system.cpu06.dtb.read_accesses                      0                       # DTB read accesses
system.cpu06.dtb.read_hits                          0                       # DTB read hits
system.cpu06.dtb.read_misses                        0                       # DTB read misses
system.cpu06.dtb.write_accesses                     0                       # DTB write accesses
system.cpu06.dtb.write_hits                         0                       # DTB write hits
system.cpu06.dtb.write_misses                       0                       # DTB write misses
system.cpu06.idle_fraction                   0.981188                       # Percentage of idle cycles
system.cpu06.itb.accesses                           0                       # DTB accesses
system.cpu06.itb.hits                               0                       # DTB hits
system.cpu06.itb.misses                             0                       # DTB misses
system.cpu06.itb.pwrStateResidencyTicks::UNDEFINED    521044000                       # Cumulative time (in ticks) in various power states
system.cpu06.itb.read_accesses                      0                       # DTB read accesses
system.cpu06.itb.read_hits                          0                       # DTB read hits
system.cpu06.itb.read_misses                        0                       # DTB read misses
system.cpu06.itb.write_accesses                     0                       # DTB write accesses
system.cpu06.itb.write_hits                         0                       # DTB write hits
system.cpu06.itb.write_misses                       0                       # DTB write misses
system.cpu06.not_idle_fraction               0.018812                       # Percentage of non-idle cycles
system.cpu06.numCycles                        1042088                       # number of cpu cycles simulated
system.cpu06.numPwrStateTransitions                 2                       # Number of power state transitions
system.cpu06.numWorkItemsCompleted                  0                       # number of work items this cpu completed
system.cpu06.numWorkItemsStarted                    0                       # number of work items this cpu started
system.cpu06.num_busy_cycles             19604.001962                       # Number of busy cycles
system.cpu06.num_conditional_control_insts          426                       # number of instructions that are conditional controls
system.cpu06.num_fp_alu_accesses                   12                       # Number of float alu accesses
system.cpu06.num_fp_insts                          12                       # number of float instructions
system.cpu06.num_fp_register_reads                 12                       # number of times the floating registers were read
system.cpu06.num_fp_register_writes                 0                       # number of times the floating registers were written
system.cpu06.num_func_calls                       416                       # number of times a function call or return occured
system.cpu06.num_idle_cycles             1022483.998038                       # Number of idle cycles
system.cpu06.num_int_alu_accesses                4358                       # Number of integer alu accesses
system.cpu06.num_int_insts                       4358                       # number of integer instructions
system.cpu06.num_int_register_reads              5028                       # number of times the integer registers were read
system.cpu06.num_int_register_writes             3231                       # number of times the integer registers were written
system.cpu06.num_load_insts                      1085                       # Number of load instructions
system.cpu06.num_mem_refs                        1613                       # number of memory refs
system.cpu06.num_store_insts                      528                       # Number of store instructions
system.cpu06.num_vec_alu_accesses                   0                       # Number of vector alu accesses
system.cpu06.num_vec_insts                          0                       # number of vector instructions
system.cpu06.num_vec_register_reads                 0                       # number of times the vector registers were read
system.cpu06.num_vec_register_writes                0                       # number of times the vector registers were written
system.cpu06.op_class::No_OpClass                  10      0.22%      0.22% # Class of executed instruction
system.cpu06.op_class::IntAlu                    2828     63.49%     63.72% # Class of executed instruction
system.cpu06.op_class::IntMult                      1      0.02%     63.74% # Class of executed instruction
system.cpu06.op_class::IntDiv                       2      0.04%     63.79% # Class of executed instruction
system.cpu06.op_class::FloatAdd                     0      0.00%     63.79% # Class of executed instruction
system.cpu06.op_class::FloatCmp                     0      0.00%     63.79% # Class of executed instruction
system.cpu06.op_class::FloatCvt                     0      0.00%     63.79% # Class of executed instruction
system.cpu06.op_class::FloatMult                    0      0.00%     63.79% # Class of executed instruction
system.cpu06.op_class::FloatMultAcc                 0      0.00%     63.79% # Class of executed instruction
system.cpu06.op_class::FloatDiv                     0      0.00%     63.79% # Class of executed instruction
system.cpu06.op_class::FloatMisc                    0      0.00%     63.79% # Class of executed instruction
system.cpu06.op_class::FloatSqrt                    0      0.00%     63.79% # Class of executed instruction
system.cpu06.op_class::SimdAdd                      0      0.00%     63.79% # Class of executed instruction
system.cpu06.op_class::SimdAddAcc                   0      0.00%     63.79% # Class of executed instruction
system.cpu06.op_class::SimdAlu                      0      0.00%     63.79% # Class of executed instruction
system.cpu06.op_class::SimdCmp                      0      0.00%     63.79% # Class of executed instruction
system.cpu06.op_class::SimdCvt                      0      0.00%     63.79% # Class of executed instruction
system.cpu06.op_class::SimdMisc                     0      0.00%     63.79% # Class of executed instruction
system.cpu06.op_class::SimdMult                     0      0.00%     63.79% # Class of executed instruction
system.cpu06.op_class::SimdMultAcc                  0      0.00%     63.79% # Class of executed instruction
system.cpu06.op_class::SimdShift                    0      0.00%     63.79% # Class of executed instruction
system.cpu06.op_class::SimdShiftAcc                 0      0.00%     63.79% # Class of executed instruction
system.cpu06.op_class::SimdSqrt                     0      0.00%     63.79% # Class of executed instruction
system.cpu06.op_class::SimdFloatAdd                 0      0.00%     63.79% # Class of executed instruction
system.cpu06.op_class::SimdFloatAlu                 0      0.00%     63.79% # Class of executed instruction
system.cpu06.op_class::SimdFloatCmp                 0      0.00%     63.79% # Class of executed instruction
system.cpu06.op_class::SimdFloatCvt                 0      0.00%     63.79% # Class of executed instruction
system.cpu06.op_class::SimdFloatDiv                 0      0.00%     63.79% # Class of executed instruction
system.cpu06.op_class::SimdFloatMisc                0      0.00%     63.79% # Class of executed instruction
system.cpu06.op_class::SimdFloatMult                0      0.00%     63.79% # Class of executed instruction
system.cpu06.op_class::SimdFloatMultAcc             0      0.00%     63.79% # Class of executed instruction
system.cpu06.op_class::SimdFloatSqrt                0      0.00%     63.79% # Class of executed instruction
system.cpu06.op_class::SimdAes                      0      0.00%     63.79% # Class of executed instruction
system.cpu06.op_class::SimdAesMix                   0      0.00%     63.79% # Class of executed instruction
system.cpu06.op_class::SimdSha1Hash                 0      0.00%     63.79% # Class of executed instruction
system.cpu06.op_class::SimdSha1Hash2                0      0.00%     63.79% # Class of executed instruction
system.cpu06.op_class::SimdSha256Hash               0      0.00%     63.79% # Class of executed instruction
system.cpu06.op_class::SimdSha256Hash2              0      0.00%     63.79% # Class of executed instruction
system.cpu06.op_class::SimdShaSigma2                0      0.00%     63.79% # Class of executed instruction
system.cpu06.op_class::SimdShaSigma3                0      0.00%     63.79% # Class of executed instruction
system.cpu06.op_class::MemRead                   1089     24.45%     88.24% # Class of executed instruction
system.cpu06.op_class::MemWrite                   512     11.50%     99.73% # Class of executed instruction
system.cpu06.op_class::FloatMemRead                 0      0.00%     99.73% # Class of executed instruction
system.cpu06.op_class::FloatMemWrite               12      0.27%    100.00% # Class of executed instruction
system.cpu06.op_class::IprAccess                    0      0.00%    100.00% # Class of executed instruction
system.cpu06.op_class::InstPrefetch                 0      0.00%    100.00% # Class of executed instruction
system.cpu06.op_class::total                     4454                       # Class of executed instruction
system.cpu06.pwrStateClkGateDist::samples            1                       # Distribution of time spent in the clock gated state
system.cpu06.pwrStateClkGateDist::mean       67904000                       # Distribution of time spent in the clock gated state
system.cpu06.pwrStateClkGateDist::1000-5e+10            1    100.00%    100.00% # Distribution of time spent in the clock gated state
system.cpu06.pwrStateClkGateDist::min_value     67904000                       # Distribution of time spent in the clock gated state
[...]
system.ruby.network.int_links39.credit_link.pwrStateResidencyTicks::UNDEFINED    521044000                       # Cumulative time (in ticks) in various power states
system.ruby.network.int_links39.network_link.pwrStateResidencyTicks::UNDEFINED    521044000                       # Cumulative time (in ticks) in various power states
system.ruby.network.int_links40.credit_link.pwrStateResidencyTicks::UNDEFINED    521044000                       # Cumulative time (in ticks) in various power states
system.ruby.network.int_links40.network_link.pwrStateResidencyTicks::UNDEFINED    521044000                       # Cumulative time (in ticks) in various power states
system.ruby.network.int_links41.credit_link.pwrStateResidencyTicks::UNDEFINED    521044000                       # Cumulative time (in ticks) in various power states
system.ruby.network.int_links41.network_link.pwrStateResidencyTicks::UNDEFINED    521044000                       # Cumulative time (in ticks) in various power states
system.ruby.network.int_links42.credit_link.pwrStateResidencyTicks::UNDEFINED    521044000                       # Cumulative time (in ticks) in various power states
system.ruby.network.int_links42.network_link.pwrStateResidencyTicks::UNDEFINED    521044000                       # Cumulative time (in ticks) in various power states
system.ruby.network.int_links43.credit_link.pwrStateResidencyTicks::UNDEFINED    521044000                       # Cumulative time (in ticks) in various power states
system.ruby.network.int_links43.network_link.pwrStateResidencyTicks::UNDEFINED    521044000                       # Cumulative time (in ticks) in various power states
system.ruby.network.int_links44.credit_link.pwrStateResidencyTicks::UNDEFINED    521044000                       # Cumulative time (in ticks) in various power states
system.ruby.network.int_links44.network_link.pwrStateResidencyTicks::UNDEFINED    521044000                       # Cumulative time (in ticks) in various power states
system.ruby.network.int_links45.credit_link.pwrStateResidencyTicks::UNDEFINED    521044000                       # Cumulative time (in ticks) in various power states
system.ruby.network.int_links45.network_link.pwrStateResidencyTicks::UNDEFINED    521044000                       # Cumulative time (in ticks) in various power states
system.ruby.network.int_links46.credit_link.pwrStateResidencyTicks::UNDEFINED    521044000                       # Cumulative time (in ticks) in various power states
system.ruby.network.int_links46.network_link.pwrStateResidencyTicks::UNDEFINED    521044000                       # Cumulative time (in ticks) in various power states
system.ruby.network.int_links47.credit_link.pwrStateResidencyTicks::UNDEFINED    521044000                       # Cumulative time (in ticks) in various power states
system.ruby.network.int_links47.network_link.pwrStateResidencyTicks::UNDEFINED    521044000                       # Cumulative time (in ticks) in various power states
system.ruby.network.netifs00.pwrStateResidencyTicks::UNDEFINED    521044000                       # Cumulative time (in ticks) in various power states
system.ruby.network.netifs01.pwrStateResidencyTicks::UNDEFINED    521044000                       # Cumulative time (in ticks) in various power states
system.ruby.network.netifs02.pwrStateResidencyTicks::UNDEFINED    521044000                       # Cumulative time (in ticks) in various power states
system.ruby.network.netifs03.pwrStateResidencyTicks::UNDEFINED    521044000                       # Cumulative time (in ticks) in various power states
system.ruby.network.netifs04.pwrStateResidencyTicks::UNDEFINED    521044000                       # Cumulative time (in ticks) in various power states
system.ruby.network.netifs05.pwrStateResidencyTicks::UNDEFINED    521044000                       # Cumulative time (in ticks) in various power states
system.ruby.network.netifs06.pwrStateResidencyTicks::UNDEFINED    521044000                       # Cumulative time (in ticks) in various power states
system.ruby.network.netifs07.pwrStateResidencyTicks::UNDEFINED    521044000                       # Cumulative time (in ticks) in various power states
system.ruby.network.netifs08.pwrStateResidencyTicks::UNDEFINED    521044000                       # Cumulative time (in ticks) in various power states
system.ruby.network.netifs09.pwrStateResidencyTicks::UNDEFINED    521044000                       # Cumulative time (in ticks) in various power states
system.ruby.network.netifs10.pwrStateResidencyTicks::UNDEFINED    521044000                       # Cumulative time (in ticks) in various power states
system.ruby.network.netifs11.pwrStateResidencyTicks::UNDEFINED    521044000                       # Cumulative time (in ticks) in various power states
system.ruby.network.netifs12.pwrStateResidencyTicks::UNDEFINED    521044000                       # Cumulative time (in ticks) in various power states
system.ruby.network.netifs13.pwrStateResidencyTicks::UNDEFINED    521044000                       # Cumulative time (in ticks) in various power states
system.ruby.network.netifs14.pwrStateResidencyTicks::UNDEFINED    521044000                       # Cumulative time (in ticks) in various power states
system.ruby.network.netifs15.pwrStateResidencyTicks::UNDEFINED    521044000                       # Cumulative time (in ticks) in various power states
system.ruby.network.netifs16.pwrStateResidencyTicks::UNDEFINED    521044000                       # Cumulative time (in ticks) in various power states
system.ruby.network.netifs17.pwrStateResidencyTicks::UNDEFINED    521044000                       # Cumulative time (in ticks) in various power states
system.ruby.network.netifs18.pwrStateResidencyTicks::UNDEFINED    521044000                       # Cumulative time (in ticks) in various power states
system.ruby.network.netifs19.pwrStateResidencyTicks::UNDEFINED    521044000                       # Cumulative time (in ticks) in various power states
system.ruby.network.netifs20.pwrStateResidencyTicks::UNDEFINED    521044000                       # Cumulative time (in ticks) in various power states
system.ruby.network.netifs21.pwrStateResidencyTicks::UNDEFINED    521044000                       # Cumulative time (in ticks) in various power states
system.ruby.network.netifs22.pwrStateResidencyTicks::UNDEFINED    521044000                       # Cumulative time (in ticks) in various power states
system.ruby.network.netifs23.pwrStateResidencyTicks::UNDEFINED    521044000                       # Cumulative time (in ticks) in various power states
system.ruby.network.netifs24.pwrStateResidencyTicks::UNDEFINED    521044000                       # Cumulative time (in ticks) in various power states
system.ruby.network.netifs25.pwrStateResidencyTicks::UNDEFINED    521044000                       # Cumulative time (in ticks) in various power states
system.ruby.network.netifs26.pwrStateResidencyTicks::UNDEFINED    521044000                       # Cumulative time (in ticks) in various power states
system.ruby.network.netifs27.pwrStateResidencyTicks::UNDEFINED    521044000                       # Cumulative time (in ticks) in various power states
system.ruby.network.netifs28.pwrStateResidencyTicks::UNDEFINED    521044000                       # Cumulative time (in ticks) in various power states
system.ruby.network.netifs29.pwrStateResidencyTicks::UNDEFINED    521044000                       # Cumulative time (in ticks) in various power states
system.ruby.network.netifs30.pwrStateResidencyTicks::UNDEFINED    521044000                       # Cumulative time (in ticks) in various power states
system.ruby.network.netifs31.pwrStateResidencyTicks::UNDEFINED    521044000                       # Cumulative time (in ticks) in various power states
system.ruby.network.netifs32.pwrStateResidencyTicks::UNDEFINED    521044000                       # Cumulative time (in ticks) in various power states
system.ruby.network.netifs33.pwrStateResidencyTicks::UNDEFINED    521044000                       # Cumulative time (in ticks) in various power states
system.ruby.network.netifs34.pwrStateResidencyTicks::UNDEFINED    521044000                       # Cumulative time (in ticks) in various power states
system.ruby.network.netifs35.pwrStateResidencyTicks::UNDEFINED    521044000                       # Cumulative time (in ticks) in various power states
system.ruby.network.packet_network_latency |      223395                       |      249320                       |       55412                      
system.ruby.network.packet_queueing_latency |      122517                       |       31779                       |        6653                      
system.ruby.network.packets_injected     |       19836     42.71%     42.71% |       20030     43.13%     85.84% |        6574     14.16%    100.00%
system.ruby.network.packets_injected::total        46440                      
system.ruby.network.packets_received     |       19836     42.71%     42.71% |       20030     43.13%     85.84% |        6574     14.16%    100.00%
system.ruby.network.packets_received::total        46440                      
system.ruby.network.pwrStateResidencyTicks::UNDEFINED    521044000                       # Cumulative time (in ticks) in various power states
system.ruby.network.routers00.buffer_reads        94892                      
system.ruby.network.routers00.buffer_writes        94892                      
system.ruby.network.routers00.crossbar_activity        94892                      
system.ruby.network.routers00.pwrStateResidencyTicks::UNDEFINED    521044000                       # Cumulative time (in ticks) in various power states
system.ruby.network.routers00.sw_input_arbiter_activity        94917                      
system.ruby.network.routers00.sw_output_arbiter_activity        94892                      
system.ruby.network.routers01.buffer_reads        38565                      
system.ruby.network.routers01.buffer_writes        38565                      
system.ruby.network.routers01.crossbar_activity        38565                      
system.ruby.network.routers01.pwrStateResidencyTicks::UNDEFINED    521044000                       # Cumulative time (in ticks) in various power states
system.ruby.network.routers01.sw_input_arbiter_activity        38599                      
system.ruby.network.routers01.sw_output_arbiter_activity        38565                      
system.ruby.network.routers02.buffer_reads        24885                      
system.ruby.network.routers02.buffer_writes        24885                      
system.ruby.network.routers02.crossbar_activity        24885                      
system.ruby.network.routers02.pwrStateResidencyTicks::UNDEFINED    521044000                       # Cumulative time (in ticks) in various power states
system.ruby.network.routers02.sw_input_arbiter_activity        24915                      
system.ruby.network.routers02.sw_output_arbiter_activity        24885                      
system.ruby.network.routers03.buffer_reads        15397                      
system.ruby.network.routers03.buffer_writes        15397                      
system.ruby.network.routers03.crossbar_activity        15397                      
system.ruby.network.routers03.pwrStateResidencyTicks::UNDEFINED    521044000                       # Cumulative time (in ticks) in various power states
system.ruby.network.routers03.sw_input_arbiter_activity        15405                      
system.ruby.network.routers03.sw_output_arbiter_activity        15397                      
system.ruby.network.routers04.buffer_reads        56795                      
system.ruby.network.routers04.buffer_writes        56795                      
system.ruby.network.routers04.crossbar_activity        56795                      
system.ruby.network.routers04.pwrStateResidencyTicks::UNDEFINED    521044000                       # Cumulative time (in ticks) in various power states
system.ruby.network.routers04.sw_input_arbiter_activity        56805                      
system.ruby.network.routers04.sw_output_arbiter_activity        56795                      
system.ruby.network.routers05.buffer_reads        18423                      
system.ruby.network.routers05.buffer_writes        18423                      
system.ruby.network.routers05.crossbar_activity        18423                      
system.ruby.network.routers05.pwrStateResidencyTicks::UNDEFINED    521044000                       # Cumulative time (in ticks) in various power states
system.ruby.network.routers05.sw_input_arbiter_activity        18433                      
system.ruby.network.routers05.sw_output_arbiter_activity        18423                      
system.ruby.network.routers06.buffer_reads        15002                      
system.ruby.network.routers06.buffer_writes        15002                      
system.ruby.network.routers06.crossbar_activity        15002                      
system.ruby.network.routers06.pwrStateResidencyTicks::UNDEFINED    521044000                       # Cumulative time (in ticks) in various power states
system.ruby.network.routers06.sw_input_arbiter_activity        15012                      
system.ruby.network.routers06.sw_output_arbiter_activity        15002                      
system.ruby.network.routers07.buffer_reads        11772                      
system.ruby.network.routers07.buffer_writes        11772                      
system.ruby.network.routers07.crossbar_activity        11772                      
system.ruby.network.routers07.pwrStateResidencyTicks::UNDEFINED    521044000                       # Cumulative time (in ticks) in various power states
system.ruby.network.routers07.sw_input_arbiter_activity        11773                      
system.ruby.network.routers07.sw_output_arbiter_activity        11772                      
system.ruby.network.routers08.buffer_reads        38721                      
system.ruby.network.routers08.buffer_writes        38721                      
system.ruby.network.routers08.crossbar_activity        38721                      
system.ruby.network.routers08.pwrStateResidencyTicks::UNDEFINED    521044000                       # Cumulative time (in ticks) in various power states
system.ruby.network.routers08.sw_input_arbiter_activity        38726                      
system.ruby.network.routers08.sw_output_arbiter_activity        38721                      
system.ruby.network.routers09.buffer_reads        16210                      
system.ruby.network.routers09.buffer_writes        16210                      
system.ruby.network.routers09.crossbar_activity        16210                      
system.ruby.network.routers09.pwrStateResidencyTicks::UNDEFINED    521044000                       # Cumulative time (in ticks) in various power states
system.ruby.network.routers09.sw_input_arbiter_activity        16219                      
system.ruby.network.routers09.sw_output_arbiter_activity        16210                      
system.ruby.network.routers10.buffer_reads        15144                      
system.ruby.network.routers10.buffer_writes        15144                      
system.ruby.network.routers10.crossbar_activity        15144                      
system.ruby.network.routers10.pwrStateResidencyTicks::UNDEFINED    521044000                       # Cumulative time (in ticks) in various power states
system.ruby.network.routers10.sw_input_arbiter_activity        15155                      
system.ruby.network.routers10.sw_output_arbiter_activity        15144                      
system.ruby.network.routers11.buffer_reads        11192                      
system.ruby.network.routers11.buffer_writes        11192                      
system.ruby.network.routers11.crossbar_activity        11192                      
system.ruby.network.routers11.pwrStateResidencyTicks::UNDEFINED    521044000                       # Cumulative time (in ticks) in various power states
system.ruby.network.routers11.sw_input_arbiter_activity        11200                      
system.ruby.network.routers11.sw_output_arbiter_activity        11192                      
system.ruby.network.routers12.buffer_reads        28594                      
system.ruby.network.routers12.buffer_writes        28594                      
system.ruby.network.routers12.crossbar_activity        28594                      
system.ruby.network.routers12.pwrStateResidencyTicks::UNDEFINED    521044000                       # Cumulative time (in ticks) in various power states
system.ruby.network.routers12.sw_input_arbiter_activity        28596                      
system.ruby.network.routers12.sw_output_arbiter_activity        28594                      
system.ruby.network.routers13.buffer_reads        18479                      
system.ruby.network.routers13.buffer_writes        18479                      
system.ruby.network.routers13.crossbar_activity        18479                      
system.ruby.network.routers13.pwrStateResidencyTicks::UNDEFINED    521044000                       # Cumulative time (in ticks) in various power states
system.ruby.network.routers13.sw_input_arbiter_activity        18487                      
system.ruby.network.routers13.sw_output_arbiter_activity        18479                      
system.ruby.network.routers14.buffer_reads        14285                      
system.ruby.network.routers14.buffer_writes        14285                      
system.ruby.network.routers14.crossbar_activity        14285                      
system.ruby.network.routers14.pwrStateResidencyTicks::UNDEFINED    521044000                       # Cumulative time (in ticks) in various power states
system.ruby.network.routers14.sw_input_arbiter_activity        14289                      
system.ruby.network.routers14.sw_output_arbiter_activity        14285                      
system.ruby.network.routers15.buffer_reads        10054                      
system.ruby.network.routers15.buffer_writes        10054                      
system.ruby.network.routers15.crossbar_activity        10054                      
system.ruby.network.routers15.pwrStateResidencyTicks::UNDEFINED    521044000                       # Cumulative time (in ticks) in various power states
system.ruby.network.routers15.sw_input_arbiter_activity        10059                      
system.ruby.network.routers15.sw_output_arbiter_activity        10054                      
system.ruby.outstanding_req_hist_seqr::bucket_size            1                      
system.ruby.outstanding_req_hist_seqr::max_bucket            9                      
system.ruby.outstanding_req_hist_seqr::samples       255394                      
system.ruby.outstanding_req_hist_seqr::mean            1                      
system.ruby.outstanding_req_hist_seqr::gmean            1                      
system.ruby.outstanding_req_hist_seqr    |           0      0.00%      0.00% |      255394    100.00%    100.00% |           0      0.00%    100.00% |           0      0.00%    100.00% |           0      0.00%    100.00% |           0      0.00%    100.00% |           0      0.00%    100.00% |           0      0.00%    100.00% |           0      0.00%    100.00% |           0      0.00%    100.00%
system.ruby.outstanding_req_hist_seqr::total       255394                      
system.ruby.pwrStateResidencyTicks::UNDEFINED    521044000                       # Cumulative time (in ticks) in various power states
system.sys_port_proxy.pwrStateResidencyTicks::UNDEFINED    521044000                       # Cumulative time (in ticks) in various power states
system.voltage_domain.voltage                       1                       # Voltage in Volts

---------- End Simulation Statistics   ----------
