
---------- Begin Simulation Statistics ----------
final_tick                                  831775000                       # Number of ticks from beginning of simulation (restored from checkpoints and never reset)
host_inst_rate                                  24943                       # Simulator instruction rate (inst/s)
host_mem_usage                                5159404                       # Number of bytes of host memory used
host_op_rate                                    25025                       # Simulator op (including micro ops) rate (op/s)
host_seconds                                     4.59                       # Real time elapsed on the host
host_tick_rate                              181106282                       # Simulator tick rate (ticks/s)
sim_freq                                 1000000000000                       # Frequency of simulated ticks
sim_insts                                      114550                       # Number of instructions simulated
sim_ops                                        114932                       # Number of ops (including micro ops) simulated
sim_seconds                                  0.000832                       # Number of seconds simulated
sim_ticks                                   831775000                       # Number of ticks simulated
system.clk_domain.clock                          1000                       # Clock period in ticks
system.cpu00.Branches                           22346                       # Number of branches fetched
system.cpu00.committedInsts                    100000                       # Number of instructions committed
system.cpu00.committedOps                      100293                       # Number of ops (including micro ops) committed
system.cpu00.dtb.accesses                           0                       # DTB accesses
system.cpu00.dtb.hits                               0                       # DTB hits
system.cpu00.dtb.misses                             0                       # DTB misses
system.cpu00.dtb.pwrStateResidencyTicks::UNDEFINED    831775000                       # Cumulative time (in ticks) in various power states
system.cpu00.dtb.read_accesses                      0                       # DTB read accesses
system.cpu00.dtb.read_hits                          0                       # DTB read hits
system.cpu00.dtb.read_misses                        0                       # DTB read misses
system.cpu00.dtb.write_accesses                     0                       # DTB write accesses
system.cpu00.dtb.write_hits                         0                       # DTB write hits
system.cpu00.dtb.write_misses                       0                       # DTB write misses
system.cpu00.idle_fraction                   0.002845                       # Percentage of idle cycles
system.cpu00.itb.accesses                           0                       # DTB accesses
system.cpu00.itb.hits                               0                       # DTB hits
system.cpu00.itb.misses                             0                       # DTB misses
system.cpu00.itb.pwrStateResidencyTicks::UNDEFINED    831775000                       # Cumulative time (in ticks) in various power states
system.cpu00.itb.read_accesses                      0                       # DTB read accesses
system.cpu00.itb.read_hits                          0                       # DTB read hits
system.cpu00.itb.read_misses                        0                       # DTB read misses
system.cpu00.itb.write_accesses                     0                       # DTB write accesses
system.cpu00.itb.write_hits                         0                       # DTB write hits
system.cpu00.itb.write_misses                       0                       # DTB write misses
system.cpu00.not_idle_fraction               0.997155                       # Percentage of non-idle cycles
system.cpu00.numCycles                        1663550                       # number of cpu cycles simulated
system.cpu00.numPwrStateTransitions                 2                       # Number of power state transitions
system.cpu00.numWorkItemsCompleted                  0                       # number of work items this cpu completed
system.cpu00.numWorkItemsStarted                    0                       # number of work items this cpu started
system.cpu00.num_busy_cycles             1658817.000006                       # Number of busy cycles
system.cpu00.num_conditional_control_insts        15926                       # number of instructions that are conditional controls
system.cpu00.num_fp_alu_accesses                   12                       # Number of float alu accesses
system.cpu00.num_fp_insts                          12                       # number of float instructions
system.cpu00.num_fp_register_reads                 12                       # number of times the floating registers were read
system.cpu00.num_fp_register_writes                 0                       # number of times the floating registers were written
system.cpu00.num_func_calls                      6420                       # number of times a function call or return occured
system.cpu00.num_idle_cycles              4732.999994                       # Number of idle cycles
system.cpu00.num_int_alu_accesses               98833                       # Number of integer alu accesses
system.cpu00.num_int_insts                      98833                       # number of integer instructions
system.cpu00.num_int_register_reads            120838                       # number of times the integer registers were read
system.cpu00.num_int_register_writes            64473                       # number of times the integer registers were written
system.cpu00.num_load_insts                     20291                       # Number of load instructions
system.cpu00.num_mem_refs                       36557                       # number of memory refs
system.cpu00.num_store_insts                    16266                       # Number of store instructions
system.cpu00.num_vec_alu_accesses                   0                       # Number of vector alu accesses
system.cpu00.num_vec_insts                          0                       # number of vector instructions
system.cpu00.num_vec_register_reads                 0                       # number of times the vector registers were read
system.cpu00.num_vec_register_writes                0                       # number of times the vector registers were written
system.cpu00.op_class::No_OpClass                 859      0.86%      0.86% # Class of executed instruction
system.cpu00.op_class::IntAlu                   62913     62.68%     63.54% # Class of executed instruction
system.cpu00.op_class::IntMult                     30      0.03%     63.57% # Class of executed instruction
system.cpu00.op_class::IntDiv                       6      0.01%     63.58% # Class of executed instruction
system.cpu00.op_class::FloatAdd                     0      0.00%     63.58% # Class of executed instruction
system.cpu00.op_class::FloatCmp                     0      0.00%     63.58% # Class of executed instruction
system.cpu00.op_class::FloatCvt                     0      0.00%     63.58% # Class of executed instruction
system.cpu00.op_class::FloatMult                    0      0.00%     63.58% # Class of executed instruction
system.cpu00.op_class::FloatMultAcc                 0      0.00%     63.58% # Class of executed instruction
system.cpu00.op_class::FloatDiv                     0      0.00%     63.58% # Class of executed instruction
system.cpu00.op_class::FloatMisc                    0      0.00%     63.58% # Class of executed instruction
system.cpu00.op_class::FloatSqrt                    0      0.00%     63.58% # Class of executed instruction
system.cpu00.op_class::SimdAdd                      0      0.00%     63.58% # Class of executed instruction
system.cpu00.op_class::SimdAddAcc                   0      0.00%     63.58% # Class of executed instruction
system.cpu00.op_class::SimdAlu                      0      0.00%     63.58% # Class of executed instruction
system.cpu00.op_class::SimdCmp                      0      0.00%     63.58% # Class of executed instruction
system.cpu00.op_class::SimdCvt                      0      0.00%     63.58% # Class of executed instruction
system.cpu00.op_class::SimdMisc                     0      0.00%     63.58% # Class of executed instruction
system.cpu00.op_class::SimdMult                     0      0.00%     63.58% # Class of executed instruction
system.cpu00.op_class::SimdMultAcc                  0      0.00%     63.58% # Class of executed instruction
system.cpu00.op_class::SimdShift                    0      0.00%     63.58% # Class of executed instruction
system.cpu00.op_class::SimdShiftAcc                 0      0.00%     63.58% # Class of executed instruction
system.cpu00.op_class::SimdSqrt                     0      0.00%     63.58% # Class of executed instruction
system.cpu00.op_class::SimdFloatAdd                 0      0.00%     63.58% # Class of executed instruction
system.cpu00.op_class::SimdFloatAlu                 0      0.00%     63.58% # Class of executed instruction
system.cpu00.op_class::SimdFloatCmp                 0      0.00%     63.58% # Class of executed instruction
system.cpu00.op_class::SimdFloatCvt                 0      0.00%     63.58% # Class of executed instruction
system.cpu00.op_class::SimdFloatDiv                 0      0.00%     63.58% # Class of executed instruction
system.cpu00.op_class::SimdFloatMisc                0      0.00%     63.58% # Class of executed instruction
system.cpu00.op_class::SimdFloatMult                0      0.00%     63.58% # Class of executed instruction
system.cpu00.op_class::SimdFloatMultAcc             0      0.00%     63.58% # Class of executed instruction
system.cpu00.op_class::SimdFloatSqrt                0      0.00%     63.58% # Class of executed instruction
system.cpu00.op_class::SimdAes                      0      0.00%     63.58% # Class of executed instruction
system.cpu00.op_class::SimdAesMix                   0      0.00%     63.58% # Class of executed instruction
system.cpu00.op_class::SimdSha1Hash                 0      0.00%     63.58% # Class of executed instruction
system.cpu00.op_class::SimdSha1Hash2                0      0.00%     63.58% # Class of executed instruction
system.cpu00.op_class::SimdSha256Hash               0      0.00%     63.58% # Class of executed instruction
system.cpu00.op_class::SimdSha256Hash2              0      0.00%     63.58% # Class of executed instruction
system.cpu00.op_class::SimdShaSigma2                0      0.00%     63.58% # Class of executed instruction
system.cpu00.op_class::SimdShaSigma3                0      0.00%     63.58% # Class of executed instruction
system.cpu00.op_class::MemRead                  20576     20.50%     84.08% # Class of executed instruction
system.cpu00.op_class::MemWrite                 15969     15.91%     99.99% # Class of executed instruction
system.cpu00.op_class::FloatMemRead                 0      0.00%     99.99% # Class of executed instruction
system.cpu00.op_class::FloatMemWrite               12      0.01%    100.00% # Class of executed instruction
system.cpu00.op_class::IprAccess                    0      0.00%    100.00% # Class of executed instruction
system.cpu00.op_class::InstPrefetch                 0      0.00%    100.00% # Class of executed instruction
system.cpu00.op_class::total                   100365                       # Class of executed instruction
system.cpu00.pwrStateClkGateDist::samples            1                       # Distribution of time spent in the clock gated state
system.cpu00.pwrStateClkGateDist::mean        2366500                       # Distribution of time spent in the clock gated state
system.cpu00.pwrStateClkGateDist::1000-5e+10            1    100.00%    100.00% # Distribution of time spent in the clock gated state
system.cpu00.pwrStateClkGateDist::min_value      2366500                       # Distribution of time spent in the clock gated state
system.cpu00.pwrStateClkGateDist::max_value      2366500                       # Distribution of time spent in the clock gated state
system.cpu00.pwrStateClkGateDist::total             1                       # Distribution of time spent in the clock gated state
system.cpu00.pwrStateResidencyTicks::ON     829408500                       # Cumulative time (in ticks) in various power states
system.cpu00.pwrStateResidencyTicks::CLK_GATED      2366500                       # Cumulative time (in ticks) in various power states
system.cpu00.workload.numSyscalls                  71                       # Number of system calls
system.cpu01.Branches                             182                       # Number of branches fetched
system.cpu01.committedInsts                       938                       # Number of instructions committed
system.cpu01.committedOps                         944                       # Number of ops (including micro ops) committed
system.cpu01.dtb.accesses                           0                       # DTB accesses
system.cpu01.dtb.hits                               0                       # DTB hits
system.cpu01.dtb.misses                             0                       # DTB misses
system.cpu01.dtb.pwrStateResidencyTicks::UNDEFINED    831775000                       # Cumulative time (in ticks) in various power states
system.cpu01.dtb.read_accesses                      0                       # DTB read accesses
system.cpu01.dtb.read_hits                          0                       # DTB read hits
system.cpu01.dtb.read_misses                        0                       # DTB read misses
system.cpu01.dtb.write_accesses                     0                       # DTB write accesses
system.cpu01.dtb.write_hits                         0                       # DTB write hits
system.cpu01.dtb.write_misses                       0                       # DTB write misses
system.cpu01.idle_fraction                   0.980037                       # Percentage of idle cycles
system.cpu01.itb.accesses                           0                       # DTB accesses
system.cpu01.itb.hits                               0                       # DTB hits
system.cpu01.itb.misses                             0                       # DTB misses
system.cpu01.itb.pwrStateResidencyTicks::UNDEFINED    831775000                       # Cumulative time (in ticks) in various power states
system.cpu01.itb.read_accesses                      0                       # DTB read accesses
system.cpu01.itb.read_hits                          0                       # DTB read hits
system.cpu01.itb.read_misses                        0                       # DTB read misses
system.cpu01.itb.write_accesses                     0                       # DTB write accesses
system.cpu01.itb.write_hits                         0                       # DTB write hits
system.cpu01.itb.write_misses                       0                       # DTB write misses
system.cpu01.not_idle_fraction               0.019963                       # Percentage of non-idle cycles
system.cpu01.numCycles                        1663549                       # number of cpu cycles simulated
system.cpu01.numPwrStateTransitions                 2                       # Number of power state transitions
system.cpu01.numWorkItemsCompleted                  0                       # number of work items this cpu completed
system.cpu01.numWorkItemsStarted                    0                       # number of work items this cpu started
system.cpu01.num_busy_cycles             33208.981997                       # Number of busy cycles
system.cpu01.num_conditional_control_insts           95                       # number of instructions that are conditional controls
system.cpu01.num_fp_alu_accesses                   12                       # Number of float alu accesses
system.cpu01.num_fp_insts                          12                       # number of float instructions
system.cpu01.num_fp_register_reads                 12                       # number of times the floating registers were read
system.cpu01.num_fp_register_writes                 0                       # number of times the floating registers were written
system.cpu01.num_func_calls                        87                       # number of times a function call or return occured
system.cpu01.num_idle_cycles             1630340.018003                       # Number of idle cycles
system.cpu01.num_int_alu_accesses                 924                       # Number of integer alu accesses
system.cpu01.num_int_insts                        924                       # number of integer instructions
system.cpu01.num_int_register_reads              1078                       # number of times the integer registers were read
system.cpu01.num_int_register_writes              639                       # number of times the integer registers were written
system.cpu01.num_load_insts                       208                       # Number of load instructions
system.cpu01.num_mem_refs                         370                       # number of memory refs
system.cpu01.num_store_insts                      162                       # Number of store instructions
system.cpu01.num_vec_alu_accesses                   0                       # Number of vector alu accesses
system.cpu01.num_vec_insts                          0                       # number of vector instructions
system.cpu01.num_vec_register_reads                 0                       # number of times the vector registers were read
system.cpu01.num_vec_register_writes                0                       # number of times the vector registers were written
system.cpu01.op_class::No_OpClass                  10      1.06%      1.06% # Class of executed instruction
system.cpu01.op_class::IntAlu                     563     59.51%     60.57% # Class of executed instruction
system.cpu01.op_class::IntMult                      1      0.11%     60.68% # Class of executed instruction
system.cpu01.op_class::IntDiv                       2      0.21%     60.89% # Class of executed instruction
system.cpu01.op_class::FloatAdd                     0      0.00%     60.89% # Class of executed instruction
system.cpu01.op_class::FloatCmp                     0      0.00%     60.89% # Class of executed instruction
system.cpu01.op_class::FloatCvt                     0      0.00%     60.89% # Class of executed instruction
system.cpu01.op_class::FloatMult                    0      0.00%     60.89% # Class of executed instruction
system.cpu01.op_class::FloatMultAcc                 0      0.00%     60.89% # Class of executed instruction
system.cpu01.op_class::FloatDiv                     0      0.00%     60.89% # Class of executed instruction
system.cpu01.op_class::FloatMisc                    0      0.00%     60.89% # Class of executed instruction
system.cpu01.op_class::FloatSqrt                    0      0.00%     60.89% # Class of executed instruction
system.cpu01.op_class::SimdAdd                      0      0.00%     60.89% # Class of executed instruction
system.cpu01.op_class::SimdAddAcc                   0      0.00%     60.89% # Class of executed instruction
system.cpu01.op_class::SimdAlu                      0      0.00%     60.89% # Class of executed instruction
system.cpu01.op_class::SimdCmp                      0      0.00%     60.89% # Class of executed instruction
system.cpu01.op_class::SimdCvt                      0      0.00%     60.89% # Class of executed instruction
system.cpu01.op_class::SimdMisc                     0      0.00%     60.89% # Class of executed instruction
system.cpu01.op_class::SimdMult                     0      0.00%     60.89% # Class of executed instruction
system.cpu01.op_class::SimdMultAcc                  0      0.00%     60.89% # Class of executed instruction
system.cpu01.op_class::SimdShift                    0      0.00%     60.89% # Class of executed instruction
system.cpu01.op_class::SimdShiftAcc                 0      0.00%     60.89% # Class of executed instruction
system.cpu01.op_class::SimdSqrt                     0      0.00%     60.89% # Class of executed instruction
system.cpu01.op_class::SimdFloatAdd                 0      0.00%     60.89% # Class of executed instruction
system.cpu01.op_class::SimdFloatAlu                 0      0.00%     60.89% # Class of executed instruction
system.cpu01.op_class::SimdFloatCmp                 0      0.00%     60.89% # Class of executed instruction
system.cpu01.op_class::SimdFloatCvt                 0      0.00%     60.89% # Class of executed instruction
system.cpu01.op_class::SimdFloatDiv                 0      0.00%     60.89% # Class of executed instruction
system.cpu01.op_class::SimdFloatMisc                0      0.00%     60.89% # Class of executed instruction
system.cpu01.op_class::SimdFloatMult                0      0.00%     60.89% # Class of executed instruction
system.cpu01.op_class::SimdFloatMultAcc             0      0.00%     60.89% # Class of executed instruction
system.cpu01.op_class::SimdFloatSqrt                0      0.00%     60.89% # Class of executed instruction
system.cpu01.op_class::SimdAes                      0      0.00%     60.89% # Class of executed instruction
system.cpu01.op_class::SimdAesMix                   0      0.00%     60.89% # Class of executed instruction
system.cpu01.op_class::SimdSha1Hash                 0      0.00%     60.89% # Class of executed instruction
system.cpu01.op_class::SimdSha1Hash2                0      0.00%     60.89% # Class of executed instruction
system.cpu01.op_class::SimdSha256Hash               0      0.00%     60.89% # Class of executed instruction
system.cpu01.op_class::SimdSha256Hash2              0      0.00%     60.89% # Class of executed instruction
system.cpu01.op_class::SimdShaSigma2                0      0.00%     60.89% # Class of executed instruction
system.cpu01.op_class::SimdShaSigma3                0      0.00%     60.89% # Class of executed instruction
system.cpu01.op_class::MemRead                    212     22.41%     83.30% # Class of executed instruction
system.cpu01.op_class::MemWrite                   146     15.43%     98.73% # Class of executed instruction
system.cpu01.op_class::FloatMemRead                 0      0.00%     98.73% # Class of executed instruction
system.cpu01.op_class::FloatMemWrite               12      1.27%    100.00% # Class of executed instruction
system.cpu01.op_class::IprAccess                    0      0.00%    100.00% # Class of executed instruction
system.cpu01.op_class::InstPrefetch                 0      0.00%    100.00% # Class of executed instruction
system.cpu01.op_class::total                      946                       # Class of executed instruction
system.cpu01.pwrStateClkGateDist::samples            1                       # Distribution of time spent in the clock gated state
system.cpu01.pwrStateClkGateDist::mean      191164000                       # Distribution of time spent in the clock gated state
system.cpu01.pwrStateClkGateDist::1000-5e+10            1    100.00%    100.00% # Distribution of time spent in the clock gated state
system.cpu01.pwrStateClkGateDist::min_value    191164000                       # Distribution of time spent in the clock gated state
system.cpu01.pwrStateClkGateDist::max_value    191164000                       # Distribution of time spent in the clock gated state
system.cpu01.pwrStateClkGateDist::total             1                       # Distribution of time spent in the clock gated state
system.cpu01.pwrStateResidencyTicks::ON     640611000                       # Cumulative time (in ticks) in various power states
system.cpu01.pwrStateResidencyTicks::CLK_GATED    191164000                       # Cumulative time (in ticks) in various power states
system.cpu02.Branches                             209                       # Number of branches fetched
system.cpu02.committedInsts                      1067                       # Number of instructions committed
system.cpu02.committedOps                        1073                       # Number of ops (including micro ops) committed
system.cpu02.dtb.accesses                           0                       # DTB accesses
system.cpu02.dtb.hits                               0                       # DTB hits
system.cpu02.dtb.misses                             0                       # DTB misses
system.cpu02.dtb.pwrStateResidencyTicks::UNDEFINED    831775000                       # Cumulative time (in ticks) in various power states
system.cpu02.dtb.read_accesses                      0                       # DTB read accesses
system.cpu02.dtb.read_hits                          0                       # DTB read hits
system.cpu02.dtb.read_misses                        0                       # DTB read misses
system.cpu02.dtb.write_accesses                     0                       # DTB write accesses
system.cpu02.dtb.write_hits                         0                       # DTB write hits
system.cpu02.dtb.write_misses                       0                       # DTB write misses
system.cpu02.idle_fraction                   0.982768                       # Percentage of idle cycles
system.cpu02.itb.accesses                           0                       # DTB accesses
system.cpu02.itb.hits                               0                       # DTB hits
system.cpu02.itb.misses                             0                       # DTB misses
system.cpu02.itb.pwrStateResidencyTicks::UNDEFINED    831775000                       # Cumulative time (in ticks) in various power states
system.cpu02.itb.read_accesses                      0                       # DTB read accesses
system.cpu02.itb.read_hits                          0                       # DTB read hits
system.cpu02.itb.read_misses                        0                       # DTB read misses
system.cpu02.itb.write_accesses                     0                       # DTB write accesses
system.cpu02.itb.write_hits                         0                       # DTB write hits
system.cpu02.itb.write_misses                       0                       # DTB write misses
system.cpu02.not_idle_fraction               0.017232                       # Percentage of non-idle cycles
system.cpu02.numCycles                        1663541                       # number of cpu cycles simulated
system.cpu02.numPwrStateTransitions                 2                       # Number of power state transitions
system.cpu02.numWorkItemsCompleted                  0                       # number of work items this cpu completed
system.cpu02.numWorkItemsStarted                    0                       # number of work items this cpu started
system.cpu02.num_busy_cycles             28665.846879                       # Number of busy cycles
system.cpu02.num_conditional_control_insts          110                       # number of instructions that are conditional controls
system.cpu02.num_fp_alu_accesses                   12                       # Number of float alu accesses
system.cpu02.num_fp_insts                          12                       # number of float instructions
system.cpu02.num_fp_register_reads                 12                       # number of times the floating registers were read
system.cpu02.num_fp_register_writes                 0                       # number of times the floating registers were written
system.cpu02.num_func_calls                        99                       # number of times a function call or return occured
system.cpu02.num_idle_cycles             1634875.153121                       # Number of idle cycles
system.cpu02.num_int_alu_accesses                1050                       # Number of integer alu accesses
system.cpu02.num_int_insts                       1050                       # number of integer instructions
system.cpu02.num_int_register_reads              1226                       # number of times the integer registers were read
system.cpu02.num_int_register_writes              732                       # number of times the integer registers were written
system.cpu02.num_load_insts                       238                       # Number of load instructions
system.cpu02.num_mem_refs                         413                       # number of memory refs
system.cpu02.num_store_insts                      175                       # Number of store instructions
system.cpu02.num_vec_alu_accesses                   0                       # Number of vector alu accesses
system.cpu02.num_vec_insts                          0                       # number of vector instructions
system.cpu02.num_vec_register_reads                 0                       # number of times the vector registers were read
system.cpu02.num_vec_register_writes                0                       # number of times the vector registers were written
system.cpu02.op_class::No_OpClass                  10      0.93%      0.93% # Class of executed instruction
system.cpu02.op_class::IntAlu                     649     60.37%     61.30% # Class of executed instruction
system.cpu02.op_class::IntMult                      1      0.09%     61.40% # Class of executed instruction
system.cpu02.op_class::IntDiv                       2      0.19%     61.58% # Class of executed instruction
system.cpu02.op_class::FloatAdd                     0      0.00%     61.58% # Class of executed instruction
system.cpu02.op_class::FloatCmp                     0      0.00%     61.58% # Class of executed instruction
system.cpu02.op_class::FloatCvt                     0      0.00%     61.58% # Class of executed instruction
system.cpu02.op_class::FloatMult                    0      0.00%     61.58% # Class of executed instruction
system.cpu02.op_class::FloatMultAcc                 0      0.00%     61.58% # Class of executed instruction
system.cpu02.op_class::FloatDiv                     0      0.00%     61.58% # Class of executed instruction
system.cpu02.op_class::FloatMisc                    0      0.00%     61.58% # Class of executed instruction
system.cpu02.op_class::FloatSqrt                    0      0.00%     61.58% # Class of executed instruction
system.cpu02.op_class::SimdAdd                      0      0.00%     61.58% # Class of executed instruction
system.cpu02.op_class::SimdAddAcc                   0      0.00%     61.58% # Class of executed instruction
system.cpu02.op_class::SimdAlu                      0      0.00%     61.58% # Class of executed instruction
system.cpu02.op_class::SimdCmp                      0      0.00%     61.58% # Class of executed instruction
system.cpu02.op_class::SimdCvt                      0      0.00%     61.58% # Class of executed instruction
system.cpu02.op_class::SimdMisc                     0      0.00%     61.58% # Class of executed instruction
system.cpu02.op_class::SimdMult                     0      0.00%     61.58% # Class of executed instruction
system.cpu02.op_class::SimdMultAcc                  0      0.00%     61.58% # Class of executed instruction
system.cpu02.op_class::SimdShift                    0      0.00%     61.58% # Class of executed instruction
system.cpu02.op_class::SimdShiftAcc                 0      0.00%     61.58% # Class of executed instruction
system.cpu02.op_class::SimdSqrt                     0      0.00%     61.58% # Class of executed instruction
system.cpu02.op_class::SimdFloatAdd                 0      0.00%     61.58% # Class of executed instruction
system.cpu02.op_class::SimdFloatAlu                 0      0.00%     61.58% # Class of executed instruction
system.cpu02.op_class::SimdFloatCmp                 0      0.00%     61.58% # Class of executed instruction
system.cpu02.op_class::SimdFloatCvt                 0      0.00%     61.58% # Class of executed instruction
system.cpu02.op_class::SimdFloatDiv                 0      0.00%     61.58% # Class of executed instruction
system.cpu02.op_class::SimdFloatMisc                0      0.00%     61.58% # Class of executed instruction
system.cpu02.op_class::SimdFloatMult                0      0.00%     61.58% # Class of executed instruction
system.cpu02.op_class::SimdFloatMultAcc             0      0.00%     61.58% # Class of executed instruction
system.cpu02.op_class::SimdFloatSqrt                0      0.00%     61.58% # Class of executed instruction
system.cpu02.op_class::SimdAes                      0      0.00%     61.58% # Class of executed instruction
system.cpu02.op_class::SimdAesMix                   0      0.00%     61.58% # Class of executed instruction
system.cpu02.op_class::SimdSha1Hash                 0      0.00%     61.58% # Class of executed instruction
system.cpu02.op_class::SimdSha1Hash2                0      0.00%     61.58% # Class of executed instruction
system.cpu02.op_class::SimdSha256Hash               0      0.00%     61.58% # Class of executed instruction
system.cpu02.op_class::SimdSha256Hash2              0      0.00%     61.58% # Class of executed instruction
system.cpu02.op_class::SimdShaSigma2                0      0.00%     61.58% # Class of executed instruction
system.cpu02.op_class::SimdShaSigma3                0      0.00%     61.58% # Class of executed instruction
system.cpu02.op_class::MemRead                    242     22.51%     84.09% # Class of executed instruction
system.cpu02.op_class::MemWrite                   159     14.79%     98.88% # Class of executed instruction
system.cpu02.op_class::FloatMemRead                 0      0.00%     98.88% # Class of executed instruction
system.cpu02.op_class::FloatMemWrite               12      1.12%    100.00% # Class of executed instruction
system.cpu02.op_class::IprAccess                    0      0.00%    100.00% # Class of executed instruction
system.cpu02.op_class::InstPrefetch                 0      0.00%    100.00% # Class of executed instruction
system.cpu02.op_class::total                     1075                       # Class of executed instruction
system.cpu02.pwrStateClkGateDist::samples            1                       # Distribution of time spent in the clock gated state
system.cpu02.pwrStateClkGateDist::mean      179589500                       # Distribution of time spent in the clock gated state
system.cpu02.pwrStateClkGateDist::1000-5e+10            1    100.00%    100.00% # Distribution of time spent in the clock gated state
system.cpu02.pwrStateClkGateDist::min_value    179589500                       # Distribution of time spent in the clock gated state
system.cpu02.pwrStateClkGateDist::max_value    179589500                       # Distribution of time spent in the clock gated state
system.cpu02.pwrStateClkGateDist::total             1                       # Distribution of time spent in the clock gated state
system.cpu02.pwrStateResidencyTicks::ON     652185500                       # Cumulative time (in ticks) in various power states
system.cpu02.pwrStateResidencyTicks::CLK_GATED    179589500                       # Cumulative time (in ticks) in various power states
system.cpu03.Branches                             179                       # Number of branches fetched
system.cpu03.committedInsts                       908                       # Number of instructions committed
system.cpu03.committedOps                         914                       # Number of ops (including micro ops) committed
system.cpu03.dtb.accesses                           0                       # DTB accesses
system.cpu03.dtb.hits                               0                       # DTB hits
system.cpu03.dtb.misses                             0                       # DTB misses
system.cpu03.dtb.pwrStateResidencyTicks::UNDEFINED    831775000                       # Cumulative time (in ticks) in various power states
system.cpu03.dtb.read_accesses                      0                       # DTB read accesses
system.cpu03.dtb.read_hits                          0                       # DTB read hits
system.cpu03.dtb.read_misses                        0                       # DTB read misses
system.cpu03.dtb.write_accesses                     0                       # DTB write accesses
system.cpu03.dtb.write_hits                         0                       # DTB write hits
system.cpu03.dtb.write_misses                       0                       # DTB write misses
system.cpu03.idle_fraction                   0.982899                       # Percentage of idle cycles
system.cpu03.itb.accesses                           0                       # DTB accesses
system.cpu03.itb.hits                               0                       # DTB hits
system.cpu03.itb.misses                             0                       # DTB misses
system.cpu03.itb.pwrStateResidencyTicks::UNDEFINED    831775000                       # Cumulative time (in ticks) in various power states
system.cpu03.itb.read_accesses                      0                       # DTB read accesses
system.cpu03.itb.read_hits                          0                       # DTB read hits
system.cpu03.itb.read_misses                        0                       # DTB read misses
system.cpu03.itb.write_accesses                     0                       # DTB write accesses
system.cpu03.itb.write_hits                         0                       # DTB write hits
system.cpu03.itb.write_misses                       0                       # DTB write misses
system.cpu03.not_idle_fraction               0.017101                       # Percentage of non-idle cycles
system.cpu03.numCycles                        1663549                       # number of cpu cycles simulated
system.cpu03.numPwrStateTransitions                 2                       # Number of power state transitions
system.cpu03.numWorkItemsCompleted                  0                       # number of work items this cpu completed
system.cpu03.numWorkItemsStarted                    0                       # number of work items this cpu started
system.cpu03.num_busy_cycles             28447.984865                       # Number of busy cycles
system.cpu03.num_conditional_control_insts           93                       # number of instructions that are conditional controls
system.cpu03.num_fp_alu_accesses                   12                       # Number of float alu accesses
system.cpu03.num_fp_insts                          12                       # number of float instructions
system.cpu03.num_fp_register_reads                 12                       # number of times the floating registers were read
system.cpu03.num_fp_register_writes                 0                       # number of times the floating registers were written
system.cpu03.num_func_calls                        86                       # number of times a function call or return occured
system.cpu03.num_idle_cycles             1635101.015135                       # Number of idle cycles
system.cpu03.num_int_alu_accesses                 892                       # Number of integer alu accesses
system.cpu03.num_int_insts                        892                       # number of integer instructions
system.cpu03.num_int_register_reads              1047                       # number of times the integer registers were read
system.cpu03.num_int_register_writes              613                       # number of times the integer registers were written
system.cpu03.num_load_insts                       200                       # Number of load instructions
system.cpu03.num_mem_refs                         360                       # number of memory refs
system.cpu03.num_store_insts                      160                       # Number of store instructions
system.cpu03.num_vec_alu_accesses                   0                       # Number of vector alu accesses
system.cpu03.num_vec_insts                          0                       # number of vector instructions
system.cpu03.num_vec_register_reads                 0                       # number of times the vector registers were read
system.cpu03.num_vec_register_writes                0                       # number of times the vector registers were written
system.cpu03.op_class::No_OpClass                  10      1.09%      1.09% # Class of executed instruction
system.cpu03.op_class::IntAlu                     543     59.28%     60.37% # Class of executed instruction
system.cpu03.op_class::IntMult                      1      0.11%     60.48% # Class of executed instruction
system.cpu03.op_class::IntDiv                       2      0.22%     60.70% # Class of executed instruction
system.cpu03.op_class::FloatAdd                     0      0.00%     60.70% # Class of executed instruction
system.cpu03.op_class::FloatCmp                     0      0.00%     60.70% # Class of executed instruction
system.cpu03.op_class::FloatCvt                     0      0.00%     60.70% # Class of executed instruction
system.cpu03.op_class::FloatMult                    0      0.00%     60.70% # Class of executed instruction
system.cpu03.op_class::FloatMultAcc                 0      0.00%     60.70% # Class of executed instruction
system.cpu03.op_class::FloatDiv                     0      0.00%     60.70% # Class of executed instruction
system.cpu03.op_class::FloatMisc                    0      0.00%     60.70% # Class of executed instruction
system.cpu03.op_class::FloatSqrt                    0      0.00%     60.70% # Class of executed instruction
system.cpu03.op_class::SimdAdd                      0      0.00%     60.70% # Class of executed instruction
system.cpu03.op_class::SimdAddAcc                   0      0.00%     60.70% # Class of executed instruction
system.cpu03.op_class::SimdAlu                      0      0.00%     60.70% # Class of executed instruction
system.cpu03.op_class::SimdCmp                      0      0.00%     60.70% # Class of executed instruction
system.cpu03.op_class::SimdCvt                      0      0.00%     60.70% # Class of executed instruction
system.cpu03.op_class::SimdMisc                     0      0.00%     60.70% # Class of executed instruction
system.cpu03.op_class::SimdMult                     0      0.00%     60.70% # Class of executed instruction
system.cpu03.op_class::SimdMultAcc                  0      0.00%     60.70% # Class of executed instruction
system.cpu03.op_class::SimdShift                    0      0.00%     60.70% # Class of executed instruction
system.cpu03.op_class::SimdShiftAcc                 0      0.00%     60.70% # Class of executed instruction
system.cpu03.op_class::SimdSqrt                     0      0.00%     60.70% # Class of executed instruction
system.cpu03.op_class::SimdFloatAdd                 0      0.00%     60.70% # Class of executed instruction
system.cpu03.op_class::SimdFloatAlu                 0      0.00%     60.70% # Class of executed instruction
system.cpu03.op_class::SimdFloatCmp                 0      0.00%     60.70% # Class of executed instruction
system.cpu03.op_class::SimdFloatCvt                 0      0.00%     60.70% # Class of executed instruction
system.cpu03.op_class::SimdFloatDiv                 0      0.00%     60.70% # Class of executed instruction
system.cpu03.op_class::SimdFloatMisc                0      0.00%     60.70% # Class of executed instruction
system.cpu03.op_class::SimdFloatMult                0      0.00%     60.70% # Class of executed instruction
system.cpu03.op_class::SimdFloatMultAcc             0      0.00%     60.70% # Class of executed instruction
system.cpu03.op_class::SimdFloatSqrt                0      0.00%     60.70% # Class of executed instruction
system.cpu03.op_class::SimdAes                      0      0.00%     60.70% # Class of executed instruction
system.cpu03.op_class::SimdAesMix                   0      0.00%     60.70% # Class of executed instruction
system.cpu03.op_class::SimdSha1Hash                 0      0.00%     60.70% # Class of executed instruction
system.cpu03.op_class::SimdSha1Hash2                0      0.00%     60.70% # Class of executed instruction
system.cpu03.op_class::SimdSha256Hash               0      0.00%     60.70% # Class of executed instruction
system.cpu03.op_class::SimdSha256Hash2              0      0.00%     60.70% # Class of executed instruction
system.cpu03.op_class::SimdShaSigma2                0      0.00%     60.70% # Class of executed instruction
system.cpu03.op_class::SimdShaSigma3                0      0.00%     60.70% # Class of executed instruction
system.cpu03.op_class::MemRead                    204     22.27%     82.97% # Class of executed instruction
system.cpu03.op_class::MemWrite                   144     15.72%     98.69% # Class of executed instruction
system.cpu03.op_class::FloatMemRead                 0      0.00%     98.69% # Class of executed instruction
system.cpu03.op_class::FloatMemWrite               12      1.31%    100.00% # Class of executed instruction
system.cpu03.op_class::IprAccess                    0      0.00%    100.00% # Class of executed instruction
system.cpu03.op_class::InstPrefetch                 0      0.00%    100.00% # Class of executed instruction
system.cpu03.op_class::total                      916                       # Class of executed instruction
system.cpu03.pwrStateClkGateDist::samples            1                       # Distribution of time spent in the clock gated state
system.cpu03.pwrStateClkGateDist::mean      165539000                       # Distribution of time spent in the clock gated state
system.cpu03.pwrStateClkGateDist::1000-5e+10            1    100.00%    100.00% # Distribution of time spent in the clock gated state
system.cpu03.pwrStateClkGateDist::min_value    165539000                       # Distribution of time spent in the clock gated state
system.cpu03.pwrStateClkGateDist::max_value    165539000                       # Distribution of time spent in the clock gated state
system.cpu03.pwrStateClkGateDist::total             1                       # Distribution of time spent in the clock gated state
system.cpu03.pwrStateResidencyTicks::ON     666236000                       # Cumulative time (in ticks) in various power states
system.cpu03.pwrStateResidencyTicks::CLK_GATED    165539000                       # Cumulative time (in ticks) in various power states
system.cpu04.Branches                             190                       # Number of branches fetched
system.cpu04.committedInsts                       960                       # Number of instructions committed
system.cpu04.committedOps                         966                       # Number of ops (including micro ops) committed
system.cpu04.dtb.accesses                           0                       # DTB accesses
system.cpu04.dtb.hits                               0                       # DTB hits
system.cpu04.dtb.misses                             0                       # DTB misses
system.cpu04.dtb.pwrStateResidencyTicks::UNDEFINED    831775000                       # Cumulative time (in ticks) in various power states
system.cpu04.dtb.read_accesses                      0                       # DTB read accesses
system.cpu04.dtb.read_hits                          0                       # DTB read hits
system.cpu04.dtb.read_misses                        0                       # DTB read misses
system.cpu04.dtb.write_accesses                     0                       # DTB write accesses
system.cpu04.dtb.write_hits                         0                       # DTB write hits
system.cpu04.dtb.write_misses                       0                       # DTB write misses
system.cpu04.idle_fraction                   0.982260                       # Percentage of idle cycles
system.cpu04.itb.accesses                           0                       # DTB accesses
system.cpu04.itb.hits                               0                       # DTB hits
system.cpu04.itb.misses                             0                       # DTB misses
system.cpu04.itb.pwrStateResidencyTicks::UNDEFINED    831775000                       # Cumulative time (in ticks) in various power states
system.cpu04.itb.read_accesses                      0                       # DTB read accesses
system.cpu04.itb.read_hits                          0                       # DTB read hits
system.cpu04.itb.read_misses                        0                       # DTB read misses
system.cpu04.itb.write_accesses                     0                       # DTB write accesses
system.cpu04.itb.write_hits                         0                       # DTB write hits
system.cpu04.itb.write_misses                       0                       # DTB write misses
system.cpu04.not_idle_fraction               0.017740                       # Percentage of non-idle cycles
system.cpu04.numCycles                        1663489                       # number of cpu cycles simulated
system.cpu04.numPwrStateTransitions                 2                       # Number of power state transitions
system.cpu04.numWorkItemsCompleted                  0                       # number of work items this cpu completed
system.cpu04.numWorkItemsStarted                    0                       # number of work items this cpu started
system.cpu04.num_busy_cycles             29510.919802                       # Number of busy cycles
system.cpu04.num_conditional_control_insts           98                       # number of instructions that are conditional controls
system.cpu04.num_fp_alu_accesses                   12                       # Number of float alu accesses
system.cpu04.num_fp_insts                          12                       # number of float instructions
system.cpu04.num_fp_register_reads                 12                       # number of times the floating registers were read
system.cpu04.num_fp_register_writes                 0                       # number of times the floating registers were written
system.cpu04.num_func_calls                        92                       # number of times a function call or return occured
system.cpu04.num_idle_cycles             1633978.080198                       # Number of idle cycles
system.cpu04.num_int_alu_accesses                 942                       # Number of integer alu accesses
system.cpu04.num_int_insts                        942                       # number of integer instructions
system.cpu04.num_int_register_reads              1104                       # number of times the integer registers were read
system.cpu04.num_int_register_writes              651                       # number of times the integer registers were written
system.cpu04.num_load_insts                       212                       # Number of load instructions
system.cpu04.num_mem_refs                         376                       # number of memory refs
system.cpu04.num_store_insts                      164                       # Number of store instructions
system.cpu04.num_vec_alu_accesses                   0                       # Number of vector alu accesses
system.cpu04.num_vec_insts                          0                       # number of vector instructions
system.cpu04.num_vec_register_reads                 0                       # number of times the vector registers were read
system.cpu04.num_vec_register_writes                0                       # number of times the vector registers were written
system.cpu04.op_class::No_OpClass                  10      1.03%      1.03% # Class of executed instruction
system.cpu04.op_class::IntAlu                     579     59.81%     60.85% # Class of executed instruction
system.cpu04.op_class::IntMult                      1      0.10%     60.95% # Class of executed instruction
system.cpu04.op_class::IntDiv                       2      0.21%     61.16% # Class of executed instruction
system.cpu04.op_class::FloatAdd                     0      0.00%     61.16% # Class of executed instruction
system.cpu04.op_class::FloatCmp                     0      0.00%     61.16% # Class of executed instruction
system.cpu04.op_class::FloatCvt                     0      0.00%     61.16% # Class of executed instruction
system.cpu04.op_class::FloatMult                    0      0.00%     61.16% # Class of executed instruction
system.cpu04.op_class::FloatMultAcc                 0      0.00%     61.16% # Class of executed instruction
system.cpu04.op_class::FloatDiv                     0      0.00%     61.16% # Class of executed instruction
system.cpu04.op_class::FloatMisc                    0      0.00%     61.16% # Class of executed instruction
system.cpu04.op_class::FloatSqrt                    0      0.00%     61.16% # Class of executed instruction
system.cpu04.op_class::SimdAdd                      0      0.00%     61.16% # Class of executed instruction
system.cpu04.op_class::SimdAddAcc                   0      0.00%     61.16% # Class of executed instruction
system.cpu04.op_class::SimdAlu                      0      0.00%     61.16% # Class of executed instruction
system.cpu04.op_class::SimdCmp                      0      0.00%     61.16% # Class of executed instruction
system.cpu04.op_class::SimdCvt                      0      0.00%     61.16% # Class of executed instruction
system.cpu04.op_class::SimdMisc                     0      0.00%     61.16% # Class of executed instruction
system.cpu04.op_class::SimdMult                     0      0.00%     61.16% # Class of executed instruction
system.cpu04.op_class::SimdMultAcc                  0      0.00%     61.16% # Class of executed instruction
system.cpu04.op_class::SimdShift                    0      0.00%     61.16% # Class of executed instruction
system.cpu04.op_class::SimdShiftAcc                 0      0.00%     61.16% # Class of executed instruction
system.cpu04.op_class::SimdSqrt                     0      0.00%     61.16% # Class of executed instruction
system.cpu04.op_class::SimdFloatAdd                 0      0.00%     61.16% # Class of executed instruction
system.cpu04.op_class::SimdFloatAlu                 0      0.00%     61.16% # Class of executed instruction
system.cpu04.op_class::SimdFloatCmp                 0      0.00%     61.16% # Class of executed instruction
system.cpu04.op_class::SimdFloatCvt                 0      0.00%     61.16% # Class of executed instruction
system.cpu04.op_class::SimdFloatDiv                 0      0.00%     61.16% # Class of executed instruction
system.cpu04.op_class::SimdFloatMisc                0      0.00%     61.16% # Class of executed instruction
system.cpu04.op_class::SimdFloatMult                0      0.00%     61.16% # Class of executed instruction
system.cpu04.op_class::SimdFloatMultAcc             0      0.00%     61.16% # Class of executed instruction
system.cpu04.op_class::SimdFloatSqrt                0      0.00%     61.16% # Class of executed instruction
system.cpu04.op_class::SimdAes                      0      0.00%     61.16% # Class of executed instruction
system.cpu04.op_class::SimdAesMix                   0      0.00%     61.16% # Class of executed instruction
system.cpu04.op_class::SimdSha1Hash                 0      0.00%     61.16% # Class of executed instruction
system.cpu04.op_class::SimdSha1Hash2                0      0.00%     61.16% # Class of executed instruction
system.cpu04.op_class::SimdSha256Hash               0      0.00%     61.16% # Class of executed instruction
system.cpu04.op_class::SimdSha256Hash2              0      0.00%     61.16% # Class of executed instruction
system.cpu04.op_class::SimdShaSigma2                0      0.00%     61.16% # Class of executed instruction
system.cpu04.op_class::SimdShaSigma3                0      0.00%     61.16% # Class of executed instruction
system.cpu04.op_class::MemRead                    216     22.31%     83.47% # Class of executed instruction
system.cpu04.op_class::MemWrite                   148     15.29%     98.76% # Class of executed instruction
system.cpu04.op_class::FloatMemRead                 0      0.00%     98.76% # Class of executed instruction
system.cpu04.op_class::FloatMemWrite               12      1.24%    100.00% # Class of executed instruction
system.cpu04.op_class::IprAccess                    0      0.00%    100.00% # Class of executed instruction
system.cpu04.op_class::InstPrefetch                 0      0.00%    100.00% # Class of executed instruction
system.cpu04.op_class::total                      968                       # Class of executed instruction
system.cpu04.pwrStateClkGateDist::samples            1                       # Distribution of time spent in the clock gated state
system.cpu04.pwrStateClkGateDist::mean      151811500                       # Distribution of time spent in the clock gated state
system.cpu04.pwrStateClkGateDist::1000-5e+10            1    100.00%    100.00% # Distribution of time spent in the clock gated state
system.cpu04.pwrStateClkGateDist::min_value    151811500                       # Distribution of time spent in the clock gated state
system.cpu04.pwrStateClkGateDist::max_value    151811500                       # Distribution of time spent in the clock gated state
system.cpu04.pwrStateClkGateDist::total             1                       # Distribution of time spent in the clock gated state
system.cpu04.pwrStateResidencyTicks::ON     679963500                       # Cumulative time (in ticks) in various power states
system.cpu04.pwrStateResidencyTicks::CLK_GATED    151811500                       # Cumulative time (in ticks) in various power states
system.cpu05.Branches                             219                       # Number of branches fetched
system.cpu05.committedInsts                      1117                       # Number of instructions committed
system.cpu05.committedOps                        1123                       # Number of ops (including micro ops) committed
system.cpu05.dtb.accesses                           0                       # DTB accesses
system.cpu05.dtb.hits                               0                       # DTB hits
system.cpu05.dtb.misses                             0                       # DTB misses
system.cpu05.dtb.pwrStateResidencyTicks::UNDEFINED    831775000                       # Cumulative time (in ticks) in various power states
system.cpu05.dtb.read_accesses                      0                       # DTB read accesses
system.cpu05.dtb.read_hits                          0                       # DTB read hits
system.cpu05.dtb.read_misses                        0                       # DTB read misses
system.cpu05.dtb.write_accesses                     0                       # DTB write accesses
system.cpu05.dtb.write_hits                         0                       # DTB write hits
system.cpu05.dtb.write_misses                       0                       # DTB write misses
system.cpu05.idle_fraction                   0.982854                       # Percentage of idle cycles
system.cpu05.itb.accesses                           0                       # DTB accesses
system.cpu05.itb.hits                               0                       # DTB hits
system.cpu05.itb.misses                             0                       # DTB misses
system.cpu05.itb.pwrStateResidencyTicks::UNDEFINED    831775000                       # Cumulative time (in ticks) in various power states
system.cpu05.itb.read_accesses                      0                       # DTB read accesses
system.cpu05.itb.read_hits                          0                       # DTB read hits
system.cpu05.itb.read_misses                        0                       # DTB read misses
system.cpu05.itb.write_accesses                     0                       # DTB write accesses
system.cpu05.itb.write_hits                         0                       # DTB write hits
system.cpu05.itb.write_misses                       0                       # DTB write misses
system.cpu05.not_idle_fraction               0.017146                       # Percentage of non-idle cycles
system.cpu05.numCycles                        1663549                       # number of cpu cycles simulated
system.cpu05.numPwrStateTransitions                 2                       # Number of power state transitions
system.cpu05.numWorkItemsCompleted                  0                       # number of work items this cpu completed
system.cpu05.numWorkItemsStarted                    0                       # number of work items this cpu started
system.cpu05.num_busy_cycles             28522.984820                       # Number of busy cycles
system.cpu05.num_conditional_control_insts          114                       # number of instructions that are conditional controls
system.cpu05.num_fp_alu_accesses                   12                       # Number of float alu accesses
system.cpu05.num_fp_insts                          12                       # number of float instructions
system.cpu05.num_fp_register_reads                 12                       # number of times the floating registers were read
system.cpu05.num_fp_register_writes                 0                       # number of times the floating registers were written
system.cpu05.num_func_calls                       105                       # number of times a function call or return occured
system.cpu05.num_idle_cycles             1635026.015180                       # Number of idle cycles
system.cpu05.num_int_alu_accesses                1097                       # Number of integer alu accesses
system.cpu05.num_int_insts                       1097                       # number of integer instructions
system.cpu05.num_int_register_reads              1282                       # number of times the integer registers were read
system.cpu05.num_int_register_writes              767                       # number of times the integer registers were written
system.cpu05.num_load_insts                       252                       # Number of load instructions
system.cpu05.num_mem_refs                         433                       # number of memory refs
system.cpu05.num_store_insts                      181                       # Number of store instructions
system.cpu05.num_vec_alu_accesses                   0                       # Number of vector alu accesses
system.cpu05.num_vec_insts                          0                       # number of vector instructions
system.cpu05.num_vec_register_reads                 0                       # number of times the vector registers were read
system.cpu05.num_vec_register_writes                0                       # number of times the vector registers were written
system.cpu05.op_class::No_OpClass                  10      0.89%      0.89% # Class of executed instruction
system.cpu05.op_class::IntAlu                     679     60.36%     61.24% # Class of executed instruction
system.cpu05.op_class::IntMult                      1      0.09%     61.33% # Class of executed instruction
system.cpu05.op_class::IntDiv                       2      0.18%     61.51% # Class of executed instruction
system.cpu05.op_class::FloatAdd                     0      0.00%     61.51% # Class of executed instruction
system.cpu05.op_class::FloatCmp                     0      0.00%     61.51% # Class of executed instruction
system.cpu05.op_class::FloatCvt                     0      0.00%     61.51% # Class of executed instruction
system.cpu05.op_class::FloatMult                    0      0.00%     61.51% # Class of executed instruction
system.cpu05.op_class::FloatMultAcc                 0      0.00%     61.51% # Class of executed instruction
system.cpu05.op_class::FloatDiv                     0      0.00%     61.51% # Class of executed instruction
system.cpu05.op_class::FloatMisc                    0      0.00%     61.51% # Class of executed instruction
system.cpu05.op_class::FloatSqrt                    0      0.00%     61.51% # Class of executed instruction
system.cpu05.op_class::SimdAdd                      0      0.00%     61.51% # Class of executed instruction
system.cpu05.op_class::SimdAddAcc                   0      0.00%     61.51% # Class of executed instruction
system.cpu05.op_class::SimdAlu                      0      0.00%     61.51% # Class of executed instruction
system.cpu05.op_class::SimdCmp                      0      0.00%     61.51% # Class of executed instruction
system.cpu05.op_class::SimdCvt                      0      0.00%     61.51% # Class of executed instruction
system.cpu05.op_class::SimdMisc                     0      0.00%     61.51% # Class of executed instruction
system.cpu05.op_class::SimdMult                     0      0.00%     61.51% # Class of executed instruction
system.cpu05.op_class::SimdMultAcc                  0      0.00%     61.51% # Class of executed instruction
system.cpu05.op_class::SimdShift                    0      0.00%     61.51% # Class of executed instruction
system.cpu05.op_class::SimdShiftAcc                 0      0.00%     61.51% # Class of executed instruction
system.cpu05.op_class::SimdSqrt                     0      0.00%     61.51% # Class of executed instruction
system.cpu05.op_class::SimdFloatAdd                 0      0.00%     61.51% # Class of executed instruction
system.cpu05.op_class::SimdFloatAlu                 0      0.00%     61.51% # Class of executed instruction
system.cpu05.op_class::SimdFloatCmp                 0      0.00%     61.51% # Class of executed instruction
system.cpu05.op_class::SimdFloatCvt                 0      0.00%     61.51% # Class of executed instruction
system.cpu05.op_class::SimdFloatDiv                 0      0.00%     61.51% # Class of executed instruction
system.cpu05.op_class::SimdFloatMisc                0      0.00%     61.51% # Class of executed instruction
system.cpu05.op_class::SimdFloatMult                0      0.00%     61.51% # Class of executed instruction
system.cpu05.op_class::SimdFloatMultAcc             0      0.00%     61.51% # Class of executed instruction
system.cpu05.op_class::SimdFloatSqrt                0      0.00%     61.51% # Class of executed instruction
system.cpu05.op_class::SimdAes                      0      0.00%     61.51% # Class of executed instruction
system.cpu05.op_class::SimdAesMix                   0      0.00%     61.51% # Class of executed instruction
system.cpu05.op_class::SimdSha1Hash                 0      0.00%     61.51% # Class of executed instruction
system.cpu05.op_class::SimdSha1Hash2                0      0.00%     61.51% # Class of executed instruction
system.cpu05.op_class::SimdSha256Hash               0      0.00%     61.51% # Class of executed instruction
system.cpu05.op_class::SimdSha256Hash2              0      0.00%     61.51% # Class of executed instruction
system.cpu05.op_class::SimdShaSigma2                0      0.00%     61.51% # Class of executed instruction
system.cpu05.op_class::SimdShaSigma3                0      0.00%     61.51% # Class of executed instruction
system.cpu05.op_class::MemRead                    256     22.76%     84.27% # Class of executed instruction
system.cpu05.op_class::MemWrite                   165     14.67%     98.93% # Class of executed instruction
system.cpu05.op_class::FloatMemRead                 0      0.00%     98.93% # Class of executed instruction
system.cpu05.op_class::FloatMemWrite               12      1.07%    100.00% # Class of executed instruction
system.cpu05.op_class::IprAccess                    0      0.00%    100.00% # Class of executed instruction
system.cpu05.op_class::InstPrefetch                 0      0.00%    100.00% # Class of executed instruction
system.cpu05.op_class::total                     1125                       # Class of executed instruction
system.cpu05.pwrStateClkGateDist::samples            1                       # Distribution of time spent in the clock gated state
system.cpu05.pwrStateClkGateDist::mean      139352500                       # Distribution of time spent in the clock gated state
system.cpu05.pwrStateClkGateDist::1000-5e+10            1    100.00%    100.00% # Distribution of time spent in the clock gated state
system.cpu05.pwrStateClkGateDist::min_value    139352500                       # Distribution of time spent in the clock gated state
system.cpu05.pwrStateClkGateDist::max_value    139352500                       # Distribution of time spent in the clock gated state
system.cpu05.pwrStateClkGateDist::total             1                       # Distribution of time spent in the clock gated state
system.cpu05.pwrStateResidencyTicks::ON     692422500                       # Cumulative time (in ticks) in various power states
system.cpu05.pwrStateResidencyTicks::CLK_GATED    139352500                       # Cumulative time (in ticks) in various power states
system.cpu06.Branches                             182                       # Number of branches fetched
system.cpu06.committedInsts                       916                       # Number of instructions committed
system.cpu06.committedOps                         922                       # Number of ops (including micro ops) committed
system.cpu06.dtb.accesses                           0                       # DTB accesses
system.cpu06.dtb.hits                               0                       # DTB hits
system.cpu06.dtb.misses                             0                       # DTB misses
system.cpu06.dtb.pwrStateResidencyTicks::UNDEFINED    831775000                       # Cumulative time (in ticks) in various power states
system.cpu06.dtb.read_accesses                      0                       # DTB read accesses
system.cpu06.dtb.read_hits                          0                       # DTB read hits
system.cpu06.dtb.read_misses                        0                       # DTB read misses
system.cpu06.dtb.write_accesses                     0                       # DTB write accesses
system.cpu06.dtb.write_hits                         0                       # DTB write hits
system.cpu06.dtb.write_misses                       0                       # DTB write misses
system.cpu06.idle_fraction                   0.982521                       # Percentage of idle cycles
system.cpu06.itb.accesses                           0                       # DTB accesses
system.cpu06.itb.hits                               0                       # DTB hits
system.cpu06.itb.misses                             0                       # DTB misses
system.cpu06.itb.pwrStateResidencyTicks::UNDEFINED    831775000                       # Cumulative time (in ticks) in various power states
system.cpu06.itb.read_accesses                      0                       # DTB read accesses
system.cpu06.itb.read_hits                          0                       # DTB read hits
system.cpu06.itb.read_misses                        0                       # DTB read misses
system.cpu06.itb.write_accesses                     0                       # DTB write accesses
system.cpu06.itb.write_hits                         0                       # DTB write hits
system.cpu06.itb.write_misses                       0                       # DTB write misses
system.cpu06.not_idle_fraction               0.017479                       # Percentage of non-idle cycles
system.cpu06.numCycles                        1663530                       # number of cpu cycles simulated
system.cpu06.numPwrStateTransitions                 2                       # Number of power state transitions
system.cpu06.numWorkItemsCompleted                  0                       # number of work items this cpu completed
system.cpu06.numWorkItemsStarted                    0                       # number of work items this cpu started
system.cpu06.num_busy_cycles             29076.652387                       # Number of busy cycles
system.cpu06.num_conditional_control_insts           93                       # number of instructions that are conditional controls
system.cpu06.num_fp_alu_accesses                   12                       # Number of float alu accesses
system.cpu06.num_fp_insts                          12                       # number of float instructions
system.cpu06.num_fp_register_reads                 12                       # number of times the floating registers were read
system.cpu06.num_fp_register_writes                 0                       # number of times the floating registers were written
system.cpu06.num_func_calls                        89                       # number of times a function call or return occured
system.cpu06.num_idle_cycles             1634453.347613                       # Number of idle cycles
system.cpu06.num_int_alu_accesses                 898                       # Number of integer alu accesses
system.cpu06.num_int_insts                        898                       # number of integer instructions
system.cpu06.num_int_register_reads              1055                       # number of times the integer registers were read
system.cpu06.num_int_register_writes              619                       # number of times the integer registers were written
system.cpu06.num_load_insts                       203                       # Number of load instructions
system.cpu06.num_mem_refs                         362                       # number of memory refs
system.cpu06.num_store_insts                      159                       # Number of store instructions
system.cpu06.num_vec_alu_accesses                   0                       # Number of vector alu accesses
system.cpu06.num_vec_insts                          0                       # number of vector instructions
system.cpu06.num_vec_register_reads                 0                       # number of times the vector registers were read
system.cpu06.num_vec_register_writes                0                       # number of times the vector registers were written
system.cpu06.op_class::No_OpClass                  10      1.08%      1.08% # Class of executed instruction
system.cpu06.op_class::IntAlu                     549     59.42%     60.50% # Class of executed instruction
system.cpu06.op_class::IntMult                      1      0.11%     60.61% # Class of executed instruction
system.cpu06.op_class::IntDiv                       2      0.22%     60.82% # Class of executed instruction
system.cpu06.op_class::FloatAdd                     0      0.00%     60.82% # Class of executed instruction
system.cpu06.op_class::FloatCmp                     0      0.00%     60.82% # Class of executed instruction
system.cpu06.op_class::FloatCvt                     0      0.00%     60.82% # Class of executed instruction
system.cpu06.op_class::FloatMult                    0      0.00%     60.82% # Class of executed instruction
system.cpu06.op_class::FloatMultAcc                 0      0.00%     60.82% # Class of executed instruction
system.cpu06.op_class::FloatDiv                     0      0.00%     60.82% # Class of executed instruction
system.cpu06.op_class::FloatMisc                    0      0.00%     60.82% # Class of executed instruction
system.cpu06.op_class::FloatSqrt                    0      0.00%     60.82% # Class of executed instruction
system.cpu06.op_class::SimdAdd                      0      0.00%     60.82% # Class of executed instruction
system.cpu06.op_class::SimdAddAcc                   0      0.00%     60.82% # Class of executed instruction
system.cpu06.op_class::SimdAlu                      0      0.00%     60.82% # Class of executed instruction
system.cpu06.op_class::SimdCmp                      0      0.00%     60.82% # Class of executed instruction
system.cpu06.op_class::SimdCvt                      0      0.00%     60.82% # Class of executed instruction
system.cpu06.op_class::SimdMisc                     0      0.00%     60.82% # Class of executed instruction
system.cpu06.op_class::SimdMult                     0      0.00%     60.82% # Class of executed instruction
system.cpu06.op_class::SimdMultAcc                  0      0.00%     60.82% # Class of executed instruction
system.cpu06.op_class::SimdShift                    0      0.00%     60.82% # Class of executed instruction
system.cpu06.op_class::SimdShiftAcc                 0      0.00%     60.82% # Class of executed instruction
system.cpu06.op_class::SimdSqrt                     0      0.00%     60.82% # Class of executed instruction
system.cpu06.op_class::SimdFloatAdd                 0      0.00%     60.82% # Class of executed instruction
system.cpu06.op_class::SimdFloatAlu                 0      0.00%     60.82% # Class of executed instruction
system.cpu06.op_class::SimdFloatCmp                 0      0.00%     60.82% # Class of executed instruction
system.cpu06.op_class::SimdFloatCvt                 0      0.00%     60.82% # Class of executed instruction
system.cpu06.op_class::SimdFloatDiv                 0      0.00%     60.82% # Class of executed instruction
system.cpu06.op_class::SimdFloatMisc                0      0.00%     60.82% # Class of executed instruction
system.cpu06.op_class::SimdFloatMult                0      0.00%     60.82% # Class of executed instruction
system.cpu06.op_class::SimdFloatMultAcc             0      0.00%     60.82% # Class of executed instruction
system.cpu06.op_class::SimdFloatSqrt                0      0.00%     60.82% # Class of executed instruction
system.cpu06.op_class::SimdAes                      0      0.00%     60.82% # Class of executed instruction
system.cpu06.op_class::SimdAesMix                   0      0.00%     60.82% # Class of executed instruction
system.cpu06.op_class::SimdSha1Hash                 0      0.00%     60.82% # Class of executed instruction
system.cpu06.op_class::SimdSha1Hash2                0      0.00%     60.82% # Class of executed instruction
system.cpu06.op_class::SimdSha256Hash               0      0.00%     60.82% # Class of executed instruction
system.cpu06.op_class::SimdSha256Hash2              0      0.00%     60.82% # Class of executed instruction
system.cpu06.op_class::SimdShaSigma2                0      0.00%     60.82% # Class of executed instruction
system.cpu06.op_class::SimdShaSigma3                0      0.00%     60.82% # Class of executed instruction
system.cpu06.op_class::MemRead                    207     22.40%     83.23% # Class of executed instruction
system.cpu06.op_class::MemWrite                   143     15.48%     98.70% # Class of executed instruction
system.cpu06.op_class::FloatMemRead                 0      0.00%     98.70% # Class of executed instruction
system.cpu06.op_class::FloatMemWrite               12      1.30%    100.00% # Class of executed instruction
system.cpu06.op_class::IprAccess                    0      0.00%    100.00% # Class of executed instruction
system.cpu06.op_class::InstPrefetch                 0      0.00%    100.00% # Class of executed instruction
system.cpu06.op_class::total                      924                       # Class of executed instruction
system.cpu06.pwrStateClkGateDist::samples            1                       # Distribution of time spent in the clock gated state
system.cpu06.pwrStateClkGateDist::mean      125282500                       # Distribution of time spent in the clock gated state
system.cpu06.pwrStateClkGateDist::1000-5e+10            1    100.00%    100.00% # Distribution of time spent in the clock gated state
system.cpu06.pwrStateClkGateDist::min_value    125282500                       # Distribution of time spent in the clock gated state
[...]
system.ruby.network.int_links39.credit_link.pwrStateResidencyTicks::UNDEFINED    831775000                       # Cumulative time (in ticks) in various power states
system.ruby.network.int_links39.network_link.pwrStateResidencyTicks::UNDEFINED    831775000                       # Cumulative time (in ticks) in various power states
system.ruby.network.int_links40.credit_link.pwrStateResidencyTicks::UNDEFINED    831775000                       # Cumulative time (in ticks) in various power states
system.ruby.network.int_links40.network_link.pwrStateResidencyTicks::UNDEFINED    831775000                       # Cumulative time (in ticks) in various power states
system.ruby.network.int_links41.credit_link.pwrStateResidencyTicks::UNDEFINED    831775000                       # Cumulative time (in ticks) in various power states
system.ruby.network.int_links41.network_link.pwrStateResidencyTicks::UNDEFINED    831775000                       # Cumulative time (in ticks) in various power states
system.ruby.network.int_links42.credit_link.pwrStateResidencyTicks::UNDEFINED    831775000                       # Cumulative time (in ticks) in various power states
system.ruby.network.int_links42.network_link.pwrStateResidencyTicks::UNDEFINED    831775000                       # Cumulative time (in ticks) in various power states
system.ruby.network.int_links43.credit_link.pwrStateResidencyTicks::UNDEFINED    831775000                       # Cumulative time (in ticks) in various power states
system.ruby.network.int_links43.network_link.pwrStateResidencyTicks::UNDEFINED    831775000                       # Cumulative time (in ticks) in various power states
system.ruby.network.int_links44.credit_link.pwrStateResidencyTicks::UNDEFINED    831775000                       # Cumulative time (in ticks) in various power states
system.ruby.network.int_links44.network_link.pwrStateResidencyTicks::UNDEFINED    831775000                       # Cumulative time (in ticks) in various power states
system.ruby.network.int_links45.credit_link.pwrStateResidencyTicks::UNDEFINED    831775000                       # Cumulative time (in ticks) in various power states
system.ruby.network.int_links45.network_link.pwrStateResidencyTicks::UNDEFINED    831775000                       # Cumulative time (in ticks) in various power states
system.ruby.network.int_links46.credit_link.pwrStateResidencyTicks::UNDEFINED    831775000                       # Cumulative time (in ticks) in various power states
system.ruby.network.int_links46.network_link.pwrStateResidencyTicks::UNDEFINED    831775000                       # Cumulative time (in ticks) in various power states
system.ruby.network.int_links47.credit_link.pwrStateResidencyTicks::UNDEFINED    831775000                       # Cumulative time (in ticks) in various power states
system.ruby.network.int_links47.network_link.pwrStateResidencyTicks::UNDEFINED    831775000                       # Cumulative time (in ticks) in various power states
system.ruby.network.netifs00.pwrStateResidencyTicks::UNDEFINED    831775000                       # Cumulative time (in ticks) in various power states
system.ruby.network.netifs01.pwrStateResidencyTicks::UNDEFINED    831775000                       # Cumulative time (in ticks) in various power states
system.ruby.network.netifs02.pwrStateResidencyTicks::UNDEFINED    831775000                       # Cumulative time (in ticks) in various power states
system.ruby.network.netifs03.pwrStateResidencyTicks::UNDEFINED    831775000                       # Cumulative time (in ticks) in various power states
system.ruby.network.netifs04.pwrStateResidencyTicks::UNDEFINED    831775000                       # Cumulative time (in ticks) in various power states
system.ruby.network.netifs05.pwrStateResidencyTicks::UNDEFINED    831775000                       # Cumulative time (in ticks) in various power states
system.ruby.network.netifs06.pwrStateResidencyTicks::UNDEFINED    831775000                       # Cumulative time (in ticks) in various power states
system.ruby.network.netifs07.pwrStateResidencyTicks::UNDEFINED    831775000                       # Cumulative time (in ticks) in various power states
system.ruby.network.netifs08.pwrStateResidencyTicks::UNDEFINED    831775000                       # Cumulative time (in ticks) in various power states
system.ruby.network.netifs09.pwrStateResidencyTicks::UNDEFINED    831775000                       # Cumulative time (in ticks) in various power states
system.ruby.network.netifs10.pwrStateResidencyTicks::UNDEFINED    831775000                       # Cumulative time (in ticks) in various power states
system.ruby.network.netifs11.pwrStateResidencyTicks::UNDEFINED    831775000                       # Cumulative time (in ticks) in various power states
system.ruby.network.netifs12.pwrStateResidencyTicks::UNDEFINED    831775000                       # Cumulative time (in ticks) in various power states
system.ruby.network.netifs13.pwrStateResidencyTicks::UNDEFINED    831775000                       # Cumulative time (in ticks) in various power states
system.ruby.network.netifs14.pwrStateResidencyTicks::UNDEFINED    831775000                       # Cumulative time (in ticks) in various power states
system.ruby.network.netifs15.pwrStateResidencyTicks::UNDEFINED    831775000                       # Cumulative time (in ticks) in various power states
system.ruby.network.netifs16.pwrStateResidencyTicks::UNDEFINED    831775000                       # Cumulative time (in ticks) in various power states
system.ruby.network.netifs17.pwrStateResidencyTicks::UNDEFINED    831775000                       # Cumulative time (in ticks) in various power states
system.ruby.network.netifs18.pwrStateResidencyTicks::UNDEFINED    831775000                       # Cumulative time (in ticks) in various power states
system.ruby.network.netifs19.pwrStateResidencyTicks::UNDEFINED    831775000                       # Cumulative time (in ticks) in various power states
system.ruby.network.netifs20.pwrStateResidencyTicks::UNDEFINED    831775000                       # Cumulative time (in ticks) in various power states
system.ruby.network.netifs21.pwrStateResidencyTicks::UNDEFINED    831775000                       # Cumulative time (in ticks) in various power states
system.ruby.network.netifs22.pwrStateResidencyTicks::UNDEFINED    831775000                       # Cumulative time (in ticks) in various power states
system.ruby.network.netifs23.pwrStateResidencyTicks::UNDEFINED    831775000                       # Cumulative time (in ticks) in various power states
system.ruby.network.netifs24.pwrStateResidencyTicks::UNDEFINED    831775000                       # Cumulative time (in ticks) in various power states
system.ruby.network.netifs25.pwrStateResidencyTicks::UNDEFINED    831775000                       # Cumulative time (in ticks) in various power states
system.ruby.network.netifs26.pwrStateResidencyTicks::UNDEFINED    831775000                       # Cumulative time (in ticks) in various power states
system.ruby.network.netifs27.pwrStateResidencyTicks::UNDEFINED    831775000                       # Cumulative time (in ticks) in various power states
system.ruby.network.netifs28.pwrStateResidencyTicks::UNDEFINED    831775000                       # Cumulative time (in ticks) in various power states
system.ruby.network.netifs29.pwrStateResidencyTicks::UNDEFINED    831775000                       # Cumulative time (in ticks) in various power states
system.ruby.network.netifs30.pwrStateResidencyTicks::UNDEFINED    831775000                       # Cumulative time (in ticks) in various power states
system.ruby.network.netifs31.pwrStateResidencyTicks::UNDEFINED    831775000                       # Cumulative time (in ticks) in various power states
system.ruby.network.netifs32.pwrStateResidencyTicks::UNDEFINED    831775000                       # Cumulative time (in ticks) in various power states
system.ruby.network.netifs33.pwrStateResidencyTicks::UNDEFINED    831775000                       # Cumulative time (in ticks) in various power states
system.ruby.network.netifs34.pwrStateResidencyTicks::UNDEFINED    831775000                       # Cumulative time (in ticks) in various power states
system.ruby.network.netifs35.pwrStateResidencyTicks::UNDEFINED    831775000                       # Cumulative time (in ticks) in various power states
system.ruby.network.packet_network_latency |      593028                       |      946780                       |      216880                      
system.ruby.network.packet_queueing_latency |      180528                       |      130421                       |       20113                      
system.ruby.network.packets_injected     |       21075     34.35%     34.35% |       31119     50.72%     85.06% |        9164     14.94%    100.00%
system.ruby.network.packets_injected::total        61358                      
system.ruby.network.packets_received     |       21071     34.35%     34.35% |       31111     50.72%     85.07% |        9161     14.93%    100.00%
system.ruby.network.packets_received::total        61343                      
system.ruby.network.pwrStateResidencyTicks::UNDEFINED    831775000                       # Cumulative time (in ticks) in various power states
system.ruby.network.routers00.buffer_reads       100922                      
system.ruby.network.routers00.buffer_writes       100922                      
system.ruby.network.routers00.crossbar_activity       100917                      
system.ruby.network.routers00.pwrStateResidencyTicks::UNDEFINED    831775000                       # Cumulative time (in ticks) in various power states
system.ruby.network.routers00.sw_input_arbiter_activity       101017                      
system.ruby.network.routers00.sw_output_arbiter_activity       100917                      
system.ruby.network.routers01.buffer_reads        48287                      
system.ruby.network.routers01.buffer_writes        48287                      
system.ruby.network.routers01.crossbar_activity        48287                      
system.ruby.network.routers01.pwrStateResidencyTicks::UNDEFINED    831775000                       # Cumulative time (in ticks) in various power states
system.ruby.network.routers01.sw_input_arbiter_activity        48307                      
system.ruby.network.routers01.sw_output_arbiter_activity        48287                      
system.ruby.network.routers02.buffer_reads        34633                      
system.ruby.network.routers02.buffer_writes        34633                      
system.ruby.network.routers02.crossbar_activity        34632                      
system.ruby.network.routers02.pwrStateResidencyTicks::UNDEFINED    831775000                       # Cumulative time (in ticks) in various power states
system.ruby.network.routers02.sw_input_arbiter_activity        34677                      
system.ruby.network.routers02.sw_output_arbiter_activity        34632                      
system.ruby.network.routers03.buffer_reads        25370                      
system.ruby.network.routers03.buffer_writes        25370                      
system.ruby.network.routers03.crossbar_activity        25366                      
system.ruby.network.routers03.pwrStateResidencyTicks::UNDEFINED    831775000                       # Cumulative time (in ticks) in various power states
system.ruby.network.routers03.sw_input_arbiter_activity        25399                      
system.ruby.network.routers03.sw_output_arbiter_activity        25366                      
system.ruby.network.routers04.buffer_reads        57772                      
system.ruby.network.routers04.buffer_writes        57772                      
system.ruby.network.routers04.crossbar_activity        57772                      
system.ruby.network.routers04.pwrStateResidencyTicks::UNDEFINED    831775000                       # Cumulative time (in ticks) in various power states
system.ruby.network.routers04.sw_input_arbiter_activity        57886                      
system.ruby.network.routers04.sw_output_arbiter_activity        57772                      
system.ruby.network.routers05.buffer_reads        24217                      
system.ruby.network.routers05.buffer_writes        24217                      
system.ruby.network.routers05.crossbar_activity        24217                      
system.ruby.network.routers05.pwrStateResidencyTicks::UNDEFINED    831775000                       # Cumulative time (in ticks) in various power states
system.ruby.network.routers05.sw_input_arbiter_activity        24226                      
system.ruby.network.routers05.sw_output_arbiter_activity        24217                      
system.ruby.network.routers06.buffer_reads        20388                      
system.ruby.network.routers06.buffer_writes        20388                      
system.ruby.network.routers06.crossbar_activity        20388                      
system.ruby.network.routers06.pwrStateResidencyTicks::UNDEFINED    831775000                       # Cumulative time (in ticks) in various power states
system.ruby.network.routers06.sw_input_arbiter_activity        20417                      
system.ruby.network.routers06.sw_output_arbiter_activity        20388                      
system.ruby.network.routers07.buffer_reads        18045                      
system.ruby.network.routers07.buffer_writes        18045                      
system.ruby.network.routers07.crossbar_activity        18043                      
system.ruby.network.routers07.pwrStateResidencyTicks::UNDEFINED    831775000                       # Cumulative time (in ticks) in various power states
system.ruby.network.routers07.sw_input_arbiter_activity        18100                      
system.ruby.network.routers07.sw_output_arbiter_activity        18043                      
system.ruby.network.routers08.buffer_reads        41385                      
system.ruby.network.routers08.buffer_writes        41385                      
system.ruby.network.routers08.crossbar_activity        41384                      
system.ruby.network.routers08.pwrStateResidencyTicks::UNDEFINED    831775000                       # Cumulative time (in ticks) in various power states
system.ruby.network.routers08.sw_input_arbiter_activity        41781                      
system.ruby.network.routers08.sw_output_arbiter_activity        41384                      
system.ruby.network.routers09.buffer_reads        21143                      
system.ruby.network.routers09.buffer_writes        21143                      
system.ruby.network.routers09.crossbar_activity        21142                      
system.ruby.network.routers09.pwrStateResidencyTicks::UNDEFINED    831775000                       # Cumulative time (in ticks) in various power states
system.ruby.network.routers09.sw_input_arbiter_activity        21201                      
system.ruby.network.routers09.sw_output_arbiter_activity        21142                      
system.ruby.network.routers10.buffer_reads        22088                      
system.ruby.network.routers10.buffer_writes        22088                      
system.ruby.network.routers10.crossbar_activity        22087                      
system.ruby.network.routers10.pwrStateResidencyTicks::UNDEFINED    831775000                       # Cumulative time (in ticks) in various power states
system.ruby.network.routers10.sw_input_arbiter_activity        22161                      
system.ruby.network.routers10.sw_output_arbiter_activity        22087                      
system.ruby.network.routers11.buffer_reads        22408                      
system.ruby.network.routers11.buffer_writes        22408                      
system.ruby.network.routers11.crossbar_activity        22406                      
system.ruby.network.routers11.pwrStateResidencyTicks::UNDEFINED    831775000                       # Cumulative time (in ticks) in various power states
system.ruby.network.routers11.sw_input_arbiter_activity        22595                      
system.ruby.network.routers11.sw_output_arbiter_activity        22406                      
system.ruby.network.routers12.buffer_reads        37209                      
system.ruby.network.routers12.buffer_writes        37209                      
system.ruby.network.routers12.crossbar_activity        37206                      
system.ruby.network.routers12.pwrStateResidencyTicks::UNDEFINED    831775000                       # Cumulative time (in ticks) in various power states
system.ruby.network.routers12.sw_input_arbiter_activity        37459                      
system.ruby.network.routers12.sw_output_arbiter_activity        37206                      
system.ruby.network.routers13.buffer_reads        27060                      
system.ruby.network.routers13.buffer_writes        27060                      
system.ruby.network.routers13.crossbar_activity        27059                      
system.ruby.network.routers13.pwrStateResidencyTicks::UNDEFINED    831775000                       # Cumulative time (in ticks) in various power states
system.ruby.network.routers13.sw_input_arbiter_activity        27126                      
system.ruby.network.routers13.sw_output_arbiter_activity        27059                      
system.ruby.network.routers14.buffer_reads        24238                      
system.ruby.network.routers14.buffer_writes        24238                      
system.ruby.network.routers14.crossbar_activity        24237                      
system.ruby.network.routers14.pwrStateResidencyTicks::UNDEFINED    831775000                       # Cumulative time (in ticks) in various power states
system.ruby.network.routers14.sw_input_arbiter_activity        24304                      
system.ruby.network.routers14.sw_output_arbiter_activity        24237                      
system.ruby.network.routers15.buffer_reads        21375                      
system.ruby.network.routers15.buffer_writes        21375                      
system.ruby.network.routers15.crossbar_activity        21375                      
system.ruby.network.routers15.pwrStateResidencyTicks::UNDEFINED    831775000                       # Cumulative time (in ticks) in various power states
system.ruby.network.routers15.sw_input_arbiter_activity        21514                      
system.ruby.network.routers15.sw_output_arbiter_activity        21375                      
system.ruby.outstanding_req_hist_seqr::bucket_size            1                      
system.ruby.outstanding_req_hist_seqr::max_bucket            9                      
system.ruby.outstanding_req_hist_seqr::samples       181316                      
system.ruby.outstanding_req_hist_seqr::mean            1                      
system.ruby.outstanding_req_hist_seqr::gmean            1                      
system.ruby.outstanding_req_hist_seqr    |           0      0.00%      0.00% |      181316    100.00%    100.00% |           0      0.00%    100.00% |           0      0.00%    100.00% |           0      0.00%    100.00% |           0      0.00%    100.00% |           0      0.00%    100.00% |           0      0.00%    100.00% |           0      0.00%    100.00% |           0      0.00%    100.00%
system.ruby.outstanding_req_hist_seqr::total       181316                      
system.ruby.pwrStateResidencyTicks::UNDEFINED    831775000                       # Cumulative time (in ticks) in various power states
system.sys_port_proxy.pwrStateResidencyTicks::UNDEFINED    831775000                       # Cumulative time (in ticks) in various power states
system.voltage_domain.voltage                       1                       # Voltage in Volts

---------- End Simulation Statistics   ----------
