
---------- Begin Simulation Statistics ----------
final_tick                                  788541000                       # Number of ticks from beginning of simulation (restored from checkpoints and never reset)
host_inst_rate                                  39294                       # Simulator instruction rate (inst/s)
host_mem_usage                                5159340                       # Number of bytes of host memory used
host_op_rate                                    39382                       # Simulator op (including micro ops) rate (op/s)
host_seconds                                     4.26                       # Real time elapsed on the host
host_tick_rate                              184990854                       # Simulator tick rate (ticks/s)
sim_freq                                 1000000000000                       # Frequency of simulated ticks
sim_insts                                      167487                       # Number of instructions simulated
sim_ops                                        167869                       # Number of ops (including micro ops) simulated
sim_seconds                                  0.000789                       # Number of seconds simulated
sim_ticks                                   788541000                       # Number of ticks simulated
system.clk_domain.clock                          1000                       # Clock period in ticks
system.cpu00.Branches                           22341                       # Number of branches fetched
system.cpu00.committedInsts                    100001                       # Number of instructions committed
system.cpu00.committedOps                      100294                       # Number of ops (including micro ops) committed
system.cpu00.dtb.accesses                           0                       # DTB accesses
system.cpu00.dtb.hits                               0                       # DTB hits
system.cpu00.dtb.misses                             0                       # DTB misses
system.cpu00.dtb.pwrStateResidencyTicks::UNDEFINED    788541000                       # Cumulative time (in ticks) in various power states
system.cpu00.dtb.read_accesses                      0                       # DTB read accesses
system.cpu00.dtb.read_hits                          0                       # DTB read hits
system.cpu00.dtb.read_misses                        0                       # DTB read misses
system.cpu00.dtb.write_accesses                     0                       # DTB write accesses
system.cpu00.dtb.write_hits                         0                       # DTB write hits
system.cpu00.dtb.write_misses                       0                       # DTB write misses
system.cpu00.idle_fraction                   0.003803                       # Percentage of idle cycles
system.cpu00.itb.accesses                           0                       # DTB accesses
system.cpu00.itb.hits                               0                       # DTB hits
system.cpu00.itb.misses                             0                       # DTB misses
system.cpu00.itb.pwrStateResidencyTicks::UNDEFINED    788541000                       # Cumulative time (in ticks) in various power states
system.cpu00.itb.read_accesses                      0                       # DTB read accesses
system.cpu00.itb.read_hits                          0                       # DTB read hits
system.cpu00.itb.read_misses                        0                       # DTB read misses
system.cpu00.itb.write_accesses                     0                       # DTB write accesses
system.cpu00.itb.write_hits                         0                       # DTB write hits
system.cpu00.itb.write_misses                       0                       # DTB write misses
system.cpu00.not_idle_fraction               0.996197                       # Percentage of non-idle cycles
system.cpu00.numCycles                        1577082                       # number of cpu cycles simulated
system.cpu00.numPwrStateTransitions                 2                       # Number of power state transitions
system.cpu00.numWorkItemsCompleted                  0                       # number of work items this cpu completed
system.cpu00.numWorkItemsStarted                    0                       # number of work items this cpu started
system.cpu00.num_busy_cycles             1571085.000008                       # Number of busy cycles
system.cpu00.num_conditional_control_insts        15920                       # number of instructions that are conditional controls
system.cpu00.num_fp_alu_accesses                   12                       # Number of float alu accesses
system.cpu00.num_fp_insts                          12                       # number of float instructions
system.cpu00.num_fp_register_reads                 12                       # number of times the floating registers were read
system.cpu00.num_fp_register_writes                 0                       # number of times the floating registers were written
system.cpu00.num_func_calls                      6421                       # number of times a function call or return occured
system.cpu00.num_idle_cycles              5996.999992                       # Number of idle cycles
system.cpu00.num_int_alu_accesses               98834                       # Number of integer alu accesses
system.cpu00.num_int_insts                      98834                       # number of integer instructions
system.cpu00.num_int_register_reads            120829                       # number of times the integer registers were read
system.cpu00.num_int_register_writes            64480                       # number of times the integer registers were written
system.cpu00.num_load_insts                     20289                       # Number of load instructions
system.cpu00.num_mem_refs                       36556                       # number of memory refs
system.cpu00.num_store_insts                    16267                       # Number of store instructions
system.cpu00.num_vec_alu_accesses                   0                       # Number of vector alu accesses
system.cpu00.num_vec_insts                          0                       # number of vector instructions
system.cpu00.num_vec_register_reads                 0                       # number of times the vector registers were read
system.cpu00.num_vec_register_writes                0                       # number of times the vector registers were written
system.cpu00.op_class::No_OpClass                 860      0.86%      0.86% # Class of executed instruction
system.cpu00.op_class::IntAlu                   62915     62.68%     63.54% # Class of executed instruction
system.cpu00.op_class::IntMult                     30      0.03%     63.57% # Class of executed instruction
system.cpu00.op_class::IntDiv                       6      0.01%     63.58% # Class of executed instruction
system.cpu00.op_class::FloatAdd                     0      0.00%     63.58% # Class of executed instruction
system.cpu00.op_class::FloatCmp                     0      0.00%     63.58% # Class of executed instruction
system.cpu00.op_class::FloatCvt                     0      0.00%     63.58% # Class of executed instruction
system.cpu00.op_class::FloatMult                    0      0.00%     63.58% # Class of executed instruction
system.cpu00.op_class::FloatMultAcc                 0      0.00%     63.58% # Class of executed instruction
system.cpu00.op_class::FloatDiv                     0      0.00%     63.58% # Class of executed instruction
system.cpu00.op_class::FloatMisc                    0      0.00%     63.58% # Class of executed instruction
system.cpu00.op_class::FloatSqrt                    0      0.00%     63.58% # Class of executed instruction
system.cpu00.op_class::SimdAdd                      0      0.00%     63.58% # Class of executed instruction
system.cpu00.op_class::SimdAddAcc                   0      0.00%     63.58% # Class of executed instruction
system.cpu00.op_class::SimdAlu                      0      0.00%     63.58% # Class of executed instruction
system.cpu00.op_class::SimdCmp                      0      0.00%     63.58% # Class of executed instruction
system.cpu00.op_class::SimdCvt                      0      0.00%     63.58% # Class of executed instruction
system.cpu00.op_class::SimdMisc                     0      0.00%     63.58% # Class of executed instruction
system.cpu00.op_class::SimdMult                     0      0.00%     63.58% # Class of executed instruction
system.cpu00.op_class::SimdMultAcc                  0      0.00%     63.58% # Class of executed instruction
system.cpu00.op_class::SimdShift                    0      0.00%     63.58% # Class of executed instruction
system.cpu00.op_class::SimdShiftAcc                 0      0.00%     63.58% # Class of executed instruction
system.cpu00.op_class::SimdSqrt                     0      0.00%     63.58% # Class of executed instruction
system.cpu00.op_class::SimdFloatAdd                 0      0.00%     63.58% # Class of executed instruction
system.cpu00.op_class::SimdFloatAlu                 0      0.00%     63.58% # Class of executed instruction
system.cpu00.op_class::SimdFloatCmp                 0      0.00%     63.58% # Class of executed instruction
system.cpu00.op_class::SimdFloatCvt                 0      0.00%     63.58% # Class of executed instruction
system.cpu00.op_class::SimdFloatDiv                 0      0.00%     63.58% # Class of executed instruction
system.cpu00.op_class::SimdFloatMisc                0      0.00%     63.58% # Class of executed instruction
system.cpu00.op_class::SimdFloatMult                0      0.00%     63.58% # Class of executed instruction
system.cpu00.op_class::SimdFloatMultAcc             0      0.00%     63.58% # Class of executed instruction
system.cpu00.op_class::SimdFloatSqrt                0      0.00%     63.58% # Class of executed instruction
system.cpu00.op_class::SimdAes                      0      0.00%     63.58% # Class of executed instruction
system.cpu00.op_class::SimdAesMix                   0      0.00%     63.58% # Class of executed instruction
system.cpu00.op_class::SimdSha1Hash                 0      0.00%     63.58% # Class of executed instruction
system.cpu00.op_class::SimdSha1Hash2                0      0.00%     63.58% # Class of executed instruction
system.cpu00.op_class::SimdSha256Hash               0      0.00%     63.58% # Class of executed instruction
system.cpu00.op_class::SimdSha256Hash2              0      0.00%     63.58% # Class of executed instruction
system.cpu00.op_class::SimdShaSigma2                0      0.00%     63.58% # Class of executed instruction
system.cpu00.op_class::SimdShaSigma3                0      0.00%     63.58% # Class of executed instruction
system.cpu00.op_class::MemRead                  20574     20.50%     84.08% # Class of executed instruction
system.cpu00.op_class::MemWrite                 15970     15.91%     99.99% # Class of executed instruction
system.cpu00.op_class::FloatMemRead                 0      0.00%     99.99% # Class of executed instruction
system.cpu00.op_class::FloatMemWrite               12      0.01%    100.00% # Class of executed instruction
system.cpu00.op_class::IprAccess                    0      0.00%    100.00% # Class of executed instruction
system.cpu00.op_class::InstPrefetch                 0      0.00%    100.00% # Class of executed instruction
system.cpu00.op_class::total                   100367                       # Class of executed instruction
system.cpu00.pwrStateClkGateDist::samples            1                       # Distribution of time spent in the clock gated state
system.cpu00.pwrStateClkGateDist::mean        2998500                       # Distribution of time spent in the clock gated state
system.cpu00.pwrStateClkGateDist::1000-5e+10            1    100.00%    100.00% # Distribution of time spent in the clock gated state
system.cpu00.pwrStateClkGateDist::min_value      2998500                       # Distribution of time spent in the clock gated state
system.cpu00.pwrStateClkGateDist::max_value      2998500                       # Distribution of time spent in the clock gated state
system.cpu00.pwrStateClkGateDist::total             1                       # Distribution of time spent in the clock gated state
system.cpu00.pwrStateResidencyTicks::ON     785542500                       # Cumulative time (in ticks) in various power states
system.cpu00.pwrStateResidencyTicks::CLK_GATED      2998500                       # Cumulative time (in ticks) in various power states
system.cpu00.workload.numSyscalls                  72                       # Number of system calls
system.cpu01.Branches                             888                       # Number of branches fetched
system.cpu01.committedInsts                      4732                       # Number of instructions committed
system.cpu01.committedOps                        4738                       # Number of ops (including micro ops) committed
system.cpu01.dtb.accesses                           0                       # DTB accesses
system.cpu01.dtb.hits                               0                       # DTB hits
system.cpu01.dtb.misses                             0                       # DTB misses
system.cpu01.dtb.pwrStateResidencyTicks::UNDEFINED    788541000                       # Cumulative time (in ticks) in various power states
system.cpu01.dtb.read_accesses                      0                       # DTB read accesses
system.cpu01.dtb.read_hits                          0                       # DTB read hits
system.cpu01.dtb.read_misses                        0                       # DTB read misses
system.cpu01.dtb.write_accesses                     0                       # DTB write accesses
system.cpu01.dtb.write_hits                         0                       # DTB write hits
system.cpu01.dtb.write_misses                       0                       # DTB write misses
system.cpu01.idle_fraction                   0.981761                       # Percentage of idle cycles
system.cpu01.itb.accesses                           0                       # DTB accesses
system.cpu01.itb.hits                               0                       # DTB hits
system.cpu01.itb.misses                             0                       # DTB misses
system.cpu01.itb.pwrStateResidencyTicks::UNDEFINED    788541000                       # Cumulative time (in ticks) in various power states
system.cpu01.itb.read_accesses                      0                       # DTB read accesses
system.cpu01.itb.read_hits                          0                       # DTB read hits
system.cpu01.itb.read_misses                        0                       # DTB read misses
system.cpu01.itb.write_accesses                     0                       # DTB write accesses
system.cpu01.itb.write_hits                         0                       # DTB write hits
system.cpu01.itb.write_misses                       0                       # DTB write misses
system.cpu01.not_idle_fraction               0.018239                       # Percentage of non-idle cycles
system.cpu01.numCycles                        1577081                       # number of cpu cycles simulated
system.cpu01.numPwrStateTransitions                 2                       # Number of power state transitions
system.cpu01.numWorkItemsCompleted                  0                       # number of work items this cpu completed
system.cpu01.numWorkItemsStarted                    0                       # number of work items this cpu started
system.cpu01.num_busy_cycles             28763.983725                       # Number of busy cycles
system.cpu01.num_conditional_control_insts          465                       # number of instructions that are conditional controls
system.cpu01.num_fp_alu_accesses                   12                       # Number of float alu accesses
system.cpu01.num_fp_insts                          12                       # number of float instructions
system.cpu01.num_fp_register_reads                 12                       # number of times the floating registers were read
system.cpu01.num_fp_register_writes                 0                       # number of times the floating registers were written
system.cpu01.num_func_calls                       423                       # number of times a function call or return occured
system.cpu01.num_idle_cycles             1548317.016275                       # Number of idle cycles
system.cpu01.num_int_alu_accesses                4656                       # Number of integer alu accesses
system.cpu01.num_int_insts                       4656                       # number of integer instructions
system.cpu01.num_int_register_reads              5367                       # number of times the integer registers were read
system.cpu01.num_int_register_writes             3451                       # number of times the integer registers were written
system.cpu01.num_load_insts                      1157                       # Number of load instructions
system.cpu01.num_mem_refs                        1717                       # number of memory refs
system.cpu01.num_store_insts                      560                       # Number of store instructions
system.cpu01.num_vec_alu_accesses                   0                       # Number of vector alu accesses
system.cpu01.num_vec_insts                          0                       # number of vector instructions
system.cpu01.num_vec_register_reads                 0                       # number of times the vector registers were read
system.cpu01.num_vec_register_writes                0                       # number of times the vector registers were written
system.cpu01.op_class::No_OpClass                  10      0.21%      0.21% # Class of executed instruction
system.cpu01.op_class::IntAlu                    3010     63.50%     63.71% # Class of executed instruction
system.cpu01.op_class::IntMult                      1      0.02%     63.73% # Class of executed instruction
system.cpu01.op_class::IntDiv                       2      0.04%     63.78% # Class of executed instruction
system.cpu01.op_class::FloatAdd                     0      0.00%     63.78% # Class of executed instruction
system.cpu01.op_class::FloatCmp                     0      0.00%     63.78% # Class of executed instruction
system.cpu01.op_class::FloatCvt                     0      0.00%     63.78% # Class of executed instruction
system.cpu01.op_class::FloatMult                    0      0.00%     63.78% # Class of executed instruction
system.cpu01.op_class::FloatMultAcc                 0      0.00%     63.78% # Class of executed instruction
system.cpu01.op_class::FloatDiv                     0      0.00%     63.78% # Class of executed instruction
system.cpu01.op_class::FloatMisc                    0      0.00%     63.78% # Class of executed instruction
system.cpu01.op_class::FloatSqrt                    0      0.00%     63.78% # Class of executed instruction
system.cpu01.op_class::SimdAdd                      0      0.00%     63.78% # Class of executed instruction
system.cpu01.op_class::SimdAddAcc                   0      0.00%     63.78% # Class of executed instruction
system.cpu01.op_class::SimdAlu                      0      0.00%     63.78% # Class of executed instruction
system.cpu01.op_class::SimdCmp                      0      0.00%     63.78% # Class of executed instruction
system.cpu01.op_class::SimdCvt                      0      0.00%     63.78% # Class of executed instruction
system.cpu01.op_class::SimdMisc                     0      0.00%     63.78% # Class of executed instruction
system.cpu01.op_class::SimdMult                     0      0.00%     63.78% # Class of executed instruction
system.cpu01.op_class::SimdMultAcc                  0      0.00%     63.78% # Class of executed instruction
system.cpu01.op_class::SimdShift                    0      0.00%     63.78% # Class of executed instruction
system.cpu01.op_class::SimdShiftAcc                 0      0.00%     63.78% # Class of executed instruction
system.cpu01.op_class::SimdSqrt                     0      0.00%     63.78% # Class of executed instruction
system.cpu01.op_class::SimdFloatAdd                 0      0.00%     63.78% # Class of executed instruction
system.cpu01.op_class::SimdFloatAlu                 0      0.00%     63.78% # Class of executed instruction
system.cpu01.op_class::SimdFloatCmp                 0      0.00%     63.78% # Class of executed instruction
system.cpu01.op_class::SimdFloatCvt                 0      0.00%     63.78% # Class of executed instruction
system.cpu01.op_class::SimdFloatDiv                 0      0.00%     63.78% # Class of executed instruction
system.cpu01.op_class::SimdFloatMisc                0      0.00%     63.78% # Class of executed instruction
system.cpu01.op_class::SimdFloatMult                0      0.00%     63.78% # Class of executed instruction
system.cpu01.op_class::SimdFloatMultAcc             0      0.00%     63.78% # Class of executed instruction
system.cpu01.op_class::SimdFloatSqrt                0      0.00%     63.78% # Class of executed instruction
system.cpu01.op_class::SimdAes                      0      0.00%     63.78% # Class of executed instruction
system.cpu01.op_class::SimdAesMix                   0      0.00%     63.78% # Class of executed instruction
system.cpu01.op_class::SimdSha1Hash                 0      0.00%     63.78% # Class of executed instruction
system.cpu01.op_class::SimdSha1Hash2                0      0.00%     63.78% # Class of executed instruction
system.cpu01.op_class::SimdSha256Hash               0      0.00%     63.78% # Class of executed instruction
system.cpu01.op_class::SimdSha256Hash2              0      0.00%     63.78% # Class of executed instruction
system.cpu01.op_class::SimdShaSigma2                0      0.00%     63.78% # Class of executed instruction
system.cpu01.op_class::SimdShaSigma3                0      0.00%     63.78% # Class of executed instruction
system.cpu01.op_class::MemRead                   1161     24.49%     88.27% # Class of executed instruction
system.cpu01.op_class::MemWrite                   544     11.48%     99.75% # Class of executed instruction
system.cpu01.op_class::FloatMemRead                 0      0.00%     99.75% # Class of executed instruction
system.cpu01.op_class::FloatMemWrite               12      0.25%    100.00% # Class of executed instruction
system.cpu01.op_class::IprAccess                    0      0.00%    100.00% # Class of executed instruction
system.cpu01.op_class::InstPrefetch                 0      0.00%    100.00% # Class of executed instruction
system.cpu01.op_class::total                     4740                       # Class of executed instruction
system.cpu01.pwrStateClkGateDist::samples            1                       # Distribution of time spent in the clock gated state
system.cpu01.pwrStateClkGateDist::mean      162688500                       # Distribution of time spent in the clock gated state
system.cpu01.pwrStateClkGateDist::1000-5e+10            1    100.00%    100.00% # Distribution of time spent in the clock gated state
system.cpu01.pwrStateClkGateDist::min_value    162688500                       # Distribution of time spent in the clock gated state
system.cpu01.pwrStateClkGateDist::max_value    162688500                       # Distribution of time spent in the clock gated state
system.cpu01.pwrStateClkGateDist::total             1                       # Distribution of time spent in the clock gated state
system.cpu01.pwrStateResidencyTicks::ON     625852500                       # Cumulative time (in ticks) in various power states
system.cpu01.pwrStateResidencyTicks::CLK_GATED    162688500                       # Cumulative time (in ticks) in various power states
system.cpu02.Branches                             888                       # Number of branches fetched
system.cpu02.committedInsts                      4733                       # Number of instructions committed
system.cpu02.committedOps                        4739                       # Number of ops (including micro ops) committed
system.cpu02.dtb.accesses                           0                       # DTB accesses
system.cpu02.dtb.hits                               0                       # DTB hits
system.cpu02.dtb.misses                             0                       # DTB misses
system.cpu02.dtb.pwrStateResidencyTicks::UNDEFINED    788541000                       # Cumulative time (in ticks) in various power states
system.cpu02.dtb.read_accesses                      0                       # DTB read accesses
system.cpu02.dtb.read_hits                          0                       # DTB read hits
system.cpu02.dtb.read_misses                        0                       # DTB read misses
system.cpu02.dtb.write_accesses                     0                       # DTB write accesses
system.cpu02.dtb.write_hits                         0                       # DTB write hits
system.cpu02.dtb.write_misses                       0                       # DTB write misses
system.cpu02.idle_fraction                   0.984109                       # Percentage of idle cycles
system.cpu02.itb.accesses                           0                       # DTB accesses
system.cpu02.itb.hits                               0                       # DTB hits
system.cpu02.itb.misses                             0                       # DTB misses
system.cpu02.itb.pwrStateResidencyTicks::UNDEFINED    788541000                       # Cumulative time (in ticks) in various power states
system.cpu02.itb.read_accesses                      0                       # DTB read accesses
system.cpu02.itb.read_hits                          0                       # DTB read hits
system.cpu02.itb.read_misses                        0                       # DTB read misses
system.cpu02.itb.write_accesses                     0                       # DTB write accesses
system.cpu02.itb.write_hits                         0                       # DTB write hits
system.cpu02.itb.write_misses                       0                       # DTB write misses
system.cpu02.not_idle_fraction               0.015891                       # Percentage of non-idle cycles
system.cpu02.numCycles                        1577082                       # number of cpu cycles simulated
system.cpu02.numPwrStateTransitions                 2                       # Number of power state transitions
system.cpu02.numWorkItemsCompleted                  0                       # number of work items this cpu completed
system.cpu02.numWorkItemsStarted                    0                       # number of work items this cpu started
system.cpu02.num_busy_cycles             25061.001968                       # Number of busy cycles
system.cpu02.num_conditional_control_insts          465                       # number of instructions that are conditional controls
system.cpu02.num_fp_alu_accesses                   12                       # Number of float alu accesses
system.cpu02.num_fp_insts                          12                       # number of float instructions
system.cpu02.num_fp_register_reads                 12                       # number of times the floating registers were read
system.cpu02.num_fp_register_writes                 0                       # number of times the floating registers were written
system.cpu02.num_func_calls                       423                       # number of times a function call or return occured
system.cpu02.num_idle_cycles             1552020.998032                       # Number of idle cycles
system.cpu02.num_int_alu_accesses                4657                       # Number of integer alu accesses
system.cpu02.num_int_insts                       4657                       # number of integer instructions
system.cpu02.num_int_register_reads              5367                       # number of times the integer registers were read
system.cpu02.num_int_register_writes             3452                       # number of times the integer registers were written
system.cpu02.num_load_insts                      1158                       # Number of load instructions
system.cpu02.num_mem_refs                        1718                       # number of memory refs
system.cpu02.num_store_insts                      560                       # Number of store instructions
system.cpu02.num_vec_alu_accesses                   0                       # Number of vector alu accesses
system.cpu02.num_vec_insts                          0                       # number of vector instructions
system.cpu02.num_vec_register_reads                 0                       # number of times the vector registers were read
system.cpu02.num_vec_register_writes                0                       # number of times the vector registers were written
system.cpu02.op_class::No_OpClass                  10      0.21%      0.21% # Class of executed instruction
system.cpu02.op_class::IntAlu                    3010     63.49%     63.70% # Class of executed instruction
system.cpu02.op_class::IntMult                      1      0.02%     63.72% # Class of executed instruction
system.cpu02.op_class::IntDiv                       2      0.04%     63.76% # Class of executed instruction
system.cpu02.op_class::FloatAdd                     0      0.00%     63.76% # Class of executed instruction
system.cpu02.op_class::FloatCmp                     0      0.00%     63.76% # Class of executed instruction
system.cpu02.op_class::FloatCvt                     0      0.00%     63.76% # Class of executed instruction
system.cpu02.op_class::FloatMult                    0      0.00%     63.76% # Class of executed instruction
system.cpu02.op_class::FloatMultAcc                 0      0.00%     63.76% # Class of executed instruction
system.cpu02.op_class::FloatDiv                     0      0.00%     63.76% # Class of executed instruction
system.cpu02.op_class::FloatMisc                    0      0.00%     63.76% # Class of executed instruction
system.cpu02.op_class::FloatSqrt                    0      0.00%     63.76% # Class of executed instruction
system.cpu02.op_class::SimdAdd                      0      0.00%     63.76% # Class of executed instruction
system.cpu02.op_class::SimdAddAcc                   0      0.00%     63.76% # Class of executed instruction
system.cpu02.op_class::SimdAlu                      0      0.00%     63.76% # Class of executed instruction
system.cpu02.op_class::SimdCmp                      0      0.00%     63.76% # Class of executed instruction
system.cpu02.op_class::SimdCvt                      0      0.00%     63.76% # Class of executed instruction
system.cpu02.op_class::SimdMisc                     0      0.00%     63.76% # Class of executed instruction
system.cpu02.op_class::SimdMult                     0      0.00%     63.76% # Class of executed instruction
system.cpu02.op_class::SimdMultAcc                  0      0.00%     63.76% # Class of executed instruction
system.cpu02.op_class::SimdShift                    0      0.00%     63.76% # Class of executed instruction
system.cpu02.op_class::SimdShiftAcc                 0      0.00%     63.76% # Class of executed instruction
system.cpu02.op_class::SimdSqrt                     0      0.00%     63.76% # Class of executed instruction
system.cpu02.op_class::SimdFloatAdd                 0      0.00%     63.76% # Class of executed instruction
system.cpu02.op_class::SimdFloatAlu                 0      0.00%     63.76% # Class of executed instruction
system.cpu02.op_class::SimdFloatCmp                 0      0.00%     63.76% # Class of executed instruction
system.cpu02.op_class::SimdFloatCvt                 0      0.00%     63.76% # Class of executed instruction
system.cpu02.op_class::SimdFloatDiv                 0      0.00%     63.76% # Class of executed instruction
system.cpu02.op_class::SimdFloatMisc                0      0.00%     63.76% # Class of executed instruction
system.cpu02.op_class::SimdFloatMult                0      0.00%     63.76% # Class of executed instruction
system.cpu02.op_class::SimdFloatMultAcc             0      0.00%     63.76% # Class of executed instruction
system.cpu02.op_class::SimdFloatSqrt                0      0.00%     63.76% # Class of executed instruction
system.cpu02.op_class::SimdAes                      0      0.00%     63.76% # Class of executed instruction
system.cpu02.op_class::SimdAesMix                   0      0.00%     63.76% # Class of executed instruction
system.cpu02.op_class::SimdSha1Hash                 0      0.00%     63.76% # Class of executed instruction
system.cpu02.op_class::SimdSha1Hash2                0      0.00%     63.76% # Class of executed instruction
system.cpu02.op_class::SimdSha256Hash               0      0.00%     63.76% # Class of executed instruction
system.cpu02.op_class::SimdSha256Hash2              0      0.00%     63.76% # Class of executed instruction
system.cpu02.op_class::SimdShaSigma2                0      0.00%     63.76% # Class of executed instruction
system.cpu02.op_class::SimdShaSigma3                0      0.00%     63.76% # Class of executed instruction
system.cpu02.op_class::MemRead                   1162     24.51%     88.27% # Class of executed instruction
system.cpu02.op_class::MemWrite                   544     11.47%     99.75% # Class of executed instruction
system.cpu02.op_class::FloatMemRead                 0      0.00%     99.75% # Class of executed instruction
system.cpu02.op_class::FloatMemWrite               12      0.25%    100.00% # Class of executed instruction
system.cpu02.op_class::IprAccess                    0      0.00%    100.00% # Class of executed instruction
system.cpu02.op_class::InstPrefetch                 0      0.00%    100.00% # Class of executed instruction
system.cpu02.op_class::total                     4741                       # Class of executed instruction
system.cpu02.pwrStateClkGateDist::samples            1                       # Distribution of time spent in the clock gated state
system.cpu02.pwrStateClkGateDist::mean      152875500                       # Distribution of time spent in the clock gated state
system.cpu02.pwrStateClkGateDist::1000-5e+10            1    100.00%    100.00% # Distribution of time spent in the clock gated state
system.cpu02.pwrStateClkGateDist::min_value    152875500                       # Distribution of time spent in the clock gated state
system.cpu02.pwrStateClkGateDist::max_value    152875500                       # Distribution of time spent in the clock gated state
system.cpu02.pwrStateClkGateDist::total             1                       # Distribution of time spent in the clock gated state
system.cpu02.pwrStateResidencyTicks::ON     635665500                       # Cumulative time (in ticks) in various power states
system.cpu02.pwrStateResidencyTicks::CLK_GATED    152875500                       # Cumulative time (in ticks) in various power states
system.cpu03.Branches                             888                       # Number of branches fetched
system.cpu03.committedInsts                      4698                       # Number of instructions committed
system.cpu03.committedOps                        4704                       # Number of ops (including micro ops) committed
system.cpu03.dtb.accesses                           0                       # DTB accesses
system.cpu03.dtb.hits                               0                       # DTB hits
system.cpu03.dtb.misses                             0                       # DTB misses
system.cpu03.dtb.pwrStateResidencyTicks::UNDEFINED    788541000                       # Cumulative time (in ticks) in various power states
system.cpu03.dtb.read_accesses                      0                       # DTB read accesses
system.cpu03.dtb.read_hits                          0                       # DTB read hits
system.cpu03.dtb.read_misses                        0                       # DTB read misses
system.cpu03.dtb.write_accesses                     0                       # DTB write accesses
system.cpu03.dtb.write_hits                         0                       # DTB write hits
system.cpu03.dtb.write_misses                       0                       # DTB write misses
system.cpu03.idle_fraction                   0.984126                       # Percentage of idle cycles
system.cpu03.itb.accesses                           0                       # DTB accesses
system.cpu03.itb.hits                               0                       # DTB hits
system.cpu03.itb.misses                             0                       # DTB misses
system.cpu03.itb.pwrStateResidencyTicks::UNDEFINED    788541000                       # Cumulative time (in ticks) in various power states
system.cpu03.itb.read_accesses                      0                       # DTB read accesses
system.cpu03.itb.read_hits                          0                       # DTB read hits
system.cpu03.itb.read_misses                        0                       # DTB read misses
system.cpu03.itb.write_accesses                     0                       # DTB write accesses
system.cpu03.itb.write_hits                         0                       # DTB write hits
system.cpu03.itb.write_misses                       0                       # DTB write misses
system.cpu03.not_idle_fraction               0.015874                       # Percentage of non-idle cycles
system.cpu03.numCycles                        1577082                       # number of cpu cycles simulated
system.cpu03.numPwrStateTransitions                 2                       # Number of power state transitions
system.cpu03.numWorkItemsCompleted                  0                       # number of work items this cpu completed
system.cpu03.numWorkItemsStarted                    0                       # number of work items this cpu started
system.cpu03.num_busy_cycles             25035.001968                       # Number of busy cycles
system.cpu03.num_conditional_control_insts          450                       # number of instructions that are conditional controls
system.cpu03.num_fp_alu_accesses                   12                       # Number of float alu accesses
system.cpu03.num_fp_insts                          12                       # number of float instructions
system.cpu03.num_fp_register_reads                 12                       # number of times the floating registers were read
system.cpu03.num_fp_register_writes                 0                       # number of times the floating registers were written
system.cpu03.num_func_calls                       438                       # number of times a function call or return occured
system.cpu03.num_idle_cycles             1552046.998032                       # Number of idle cycles
system.cpu03.num_int_alu_accesses                4606                       # Number of integer alu accesses
system.cpu03.num_int_insts                       4606                       # number of integer instructions
system.cpu03.num_int_register_reads              5313                       # number of times the integer registers were read
system.cpu03.num_int_register_writes             3418                       # number of times the integer registers were written
system.cpu03.num_load_insts                      1148                       # Number of load instructions
system.cpu03.num_mem_refs                        1703                       # number of memory refs
system.cpu03.num_store_insts                      555                       # Number of store instructions
system.cpu03.num_vec_alu_accesses                   0                       # Number of vector alu accesses
system.cpu03.num_vec_insts                          0                       # number of vector instructions
system.cpu03.num_vec_register_reads                 0                       # number of times the vector registers were read
system.cpu03.num_vec_register_writes                0                       # number of times the vector registers were written
system.cpu03.op_class::No_OpClass                  10      0.21%      0.21% # Class of executed instruction
system.cpu03.op_class::IntAlu                    2990     63.54%     63.75% # Class of executed instruction
system.cpu03.op_class::IntMult                      1      0.02%     63.77% # Class of executed instruction
system.cpu03.op_class::IntDiv                       2      0.04%     63.81% # Class of executed instruction
system.cpu03.op_class::FloatAdd                     0      0.00%     63.81% # Class of executed instruction
system.cpu03.op_class::FloatCmp                     0      0.00%     63.81% # Class of executed instruction
system.cpu03.op_class::FloatCvt                     0      0.00%     63.81% # Class of executed instruction
system.cpu03.op_class::FloatMult                    0      0.00%     63.81% # Class of executed instruction
system.cpu03.op_class::FloatMultAcc                 0      0.00%     63.81% # Class of executed instruction
system.cpu03.op_class::FloatDiv                     0      0.00%     63.81% # Class of executed instruction
system.cpu03.op_class::FloatMisc                    0      0.00%     63.81% # Class of executed instruction
system.cpu03.op_class::FloatSqrt                    0      0.00%     63.81% # Class of executed instruction
system.cpu03.op_class::SimdAdd                      0      0.00%     63.81% # Class of executed instruction
system.cpu03.op_class::SimdAddAcc                   0      0.00%     63.81% # Class of executed instruction
system.cpu03.op_class::SimdAlu                      0      0.00%     63.81% # Class of executed instruction
system.cpu03.op_class::SimdCmp                      0      0.00%     63.81% # Class of executed instruction
system.cpu03.op_class::SimdCvt                      0      0.00%     63.81% # Class of executed instruction
system.cpu03.op_class::SimdMisc                     0      0.00%     63.81% # Class of executed instruction
system.cpu03.op_class::SimdMult                     0      0.00%     63.81% # Class of executed instruction
system.cpu03.op_class::SimdMultAcc                  0      0.00%     63.81% # Class of executed instruction
system.cpu03.op_class::SimdShift                    0      0.00%     63.81% # Class of executed instruction
system.cpu03.op_class::SimdShiftAcc                 0      0.00%     63.81% # Class of executed instruction
system.cpu03.op_class::SimdSqrt                     0      0.00%     63.81% # Class of executed instruction
system.cpu03.op_class::SimdFloatAdd                 0      0.00%     63.81% # Class of executed instruction
system.cpu03.op_class::SimdFloatAlu                 0      0.00%     63.81% # Class of executed instruction
system.cpu03.op_class::SimdFloatCmp                 0      0.00%     63.81% # Class of executed instruction
system.cpu03.op_class::SimdFloatCvt                 0      0.00%     63.81% # Class of executed instruction
system.cpu03.op_class::SimdFloatDiv                 0      0.00%     63.81% # Class of executed instruction
system.cpu03.op_class::SimdFloatMisc                0      0.00%     63.81% # Class of executed instruction
system.cpu03.op_class::SimdFloatMult                0      0.00%     63.81% # Class of executed instruction
system.cpu03.op_class::SimdFloatMultAcc             0      0.00%     63.81% # Class of executed instruction
system.cpu03.op_class::SimdFloatSqrt                0      0.00%     63.81% # Class of executed instruction
system.cpu03.op_class::SimdAes                      0      0.00%     63.81% # Class of executed instruction
system.cpu03.op_class::SimdAesMix                   0      0.00%     63.81% # Class of executed instruction
system.cpu03.op_class::SimdSha1Hash                 0      0.00%     63.81% # Class of executed instruction
system.cpu03.op_class::SimdSha1Hash2                0      0.00%     63.81% # Class of executed instruction
system.cpu03.op_class::SimdSha256Hash               0      0.00%     63.81% # Class of executed instruction
system.cpu03.op_class::SimdSha256Hash2              0      0.00%     63.81% # Class of executed instruction
system.cpu03.op_class::SimdShaSigma2                0      0.00%     63.81% # Class of executed instruction
system.cpu03.op_class::SimdShaSigma3                0      0.00%     63.81% # Class of executed instruction
system.cpu03.op_class::MemRead                   1152     24.48%     88.29% # Class of executed instruction
system.cpu03.op_class::MemWrite                   539     11.45%     99.75% # Class of executed instruction
system.cpu03.op_class::FloatMemRead                 0      0.00%     99.75% # Class of executed instruction
system.cpu03.op_class::FloatMemWrite               12      0.25%    100.00% # Class of executed instruction
system.cpu03.op_class::IprAccess                    0      0.00%    100.00% # Class of executed instruction
system.cpu03.op_class::InstPrefetch                 0      0.00%    100.00% # Class of executed instruction
system.cpu03.op_class::total                     4706                       # Class of executed instruction
system.cpu03.pwrStateClkGateDist::samples            1                       # Distribution of time spent in the clock gated state
system.cpu03.pwrStateClkGateDist::mean      140978500                       # Distribution of time spent in the clock gated state
system.cpu03.pwrStateClkGateDist::1000-5e+10            1    100.00%    100.00% # Distribution of time spent in the clock gated state
system.cpu03.pwrStateClkGateDist::min_value    140978500                       # Distribution of time spent in the clock gated state
system.cpu03.pwrStateClkGateDist::max_value    140978500                       # Distribution of time spent in the clock gated state
system.cpu03.pwrStateClkGateDist::total             1                       # Distribution of time spent in the clock gated state
system.cpu03.pwrStateResidencyTicks::ON     647562500                       # Cumulative time (in ticks) in various power states
system.cpu03.pwrStateResidencyTicks::CLK_GATED    140978500                       # Cumulative time (in ticks) in various power states
system.cpu04.Branches                             882                       # Number of branches fetched
system.cpu04.committedInsts                      4662                       # Number of instructions committed
system.cpu04.committedOps                        4668                       # Number of ops (including micro ops) committed
system.cpu04.dtb.accesses                           0                       # DTB accesses
system.cpu04.dtb.hits                               0                       # DTB hits
system.cpu04.dtb.misses                             0                       # DTB misses
system.cpu04.dtb.pwrStateResidencyTicks::UNDEFINED    788541000                       # Cumulative time (in ticks) in various power states
system.cpu04.dtb.read_accesses                      0                       # DTB read accesses
system.cpu04.dtb.read_hits                          0                       # DTB read hits
system.cpu04.dtb.read_misses                        0                       # DTB read misses
system.cpu04.dtb.write_accesses                     0                       # DTB write accesses
system.cpu04.dtb.write_hits                         0                       # DTB write hits
system.cpu04.dtb.write_misses                       0                       # DTB write misses
system.cpu04.idle_fraction                   0.983465                       # Percentage of idle cycles
system.cpu04.itb.accesses                           0                       # DTB accesses
system.cpu04.itb.hits                               0                       # DTB hits
system.cpu04.itb.misses                             0                       # DTB misses
system.cpu04.itb.pwrStateResidencyTicks::UNDEFINED    788541000                       # Cumulative time (in ticks) in various power states
system.cpu04.itb.read_accesses                      0                       # DTB read accesses
system.cpu04.itb.read_hits                          0                       # DTB read hits
system.cpu04.itb.read_misses                        0                       # DTB read misses
system.cpu04.itb.write_accesses                     0                       # DTB write accesses
system.cpu04.itb.write_hits                         0                       # DTB write hits
system.cpu04.itb.write_misses                       0                       # DTB write misses
system.cpu04.not_idle_fraction               0.016535                       # Percentage of non-idle cycles
system.cpu04.numCycles                        1577082                       # number of cpu cycles simulated
system.cpu04.numPwrStateTransitions                 2                       # Number of power state transitions
system.cpu04.numWorkItemsCompleted                  0                       # number of work items this cpu completed
system.cpu04.numWorkItemsStarted                    0                       # number of work items this cpu started
system.cpu04.num_busy_cycles             26077.001967                       # Number of busy cycles
system.cpu04.num_conditional_control_insts          447                       # number of instructions that are conditional controls
system.cpu04.num_fp_alu_accesses                   12                       # Number of float alu accesses
system.cpu04.num_fp_insts                          12                       # number of float instructions
system.cpu04.num_fp_register_reads                 12                       # number of times the floating registers were read
system.cpu04.num_fp_register_writes                 0                       # number of times the floating registers were written
system.cpu04.num_func_calls                       435                       # number of times a function call or return occured
system.cpu04.num_idle_cycles             1551004.998033                       # Number of idle cycles
system.cpu04.num_int_alu_accesses                4570                       # Number of integer alu accesses
system.cpu04.num_int_insts                       4570                       # number of integer instructions
system.cpu04.num_int_register_reads              5272                       # number of times the integer registers were read
system.cpu04.num_int_register_writes             3391                       # number of times the integer registers were written
system.cpu04.num_load_insts                      1140                       # Number of load instructions
system.cpu04.num_mem_refs                        1690                       # number of memory refs
system.cpu04.num_store_insts                      550                       # Number of store instructions
system.cpu04.num_vec_alu_accesses                   0                       # Number of vector alu accesses
system.cpu04.num_vec_insts                          0                       # number of vector instructions
system.cpu04.num_vec_register_reads                 0                       # number of times the vector registers were read
system.cpu04.num_vec_register_writes                0                       # number of times the vector registers were written
system.cpu04.op_class::No_OpClass                  10      0.21%      0.21% # Class of executed instruction
system.cpu04.op_class::IntAlu                    2967     63.53%     63.75% # Class of executed instruction
system.cpu04.op_class::IntMult                      1      0.02%     63.77% # Class of executed instruction
system.cpu04.op_class::IntDiv                       2      0.04%     63.81% # Class of executed instruction
system.cpu04.op_class::FloatAdd                     0      0.00%     63.81% # Class of executed instruction
system.cpu04.op_class::FloatCmp                     0      0.00%     63.81% # Class of executed instruction
system.cpu04.op_class::FloatCvt                     0      0.00%     63.81% # Class of executed instruction
system.cpu04.op_class::FloatMult                    0      0.00%     63.81% # Class of executed instruction
system.cpu04.op_class::FloatMultAcc                 0      0.00%     63.81% # Class of executed instruction
system.cpu04.op_class::FloatDiv                     0      0.00%     63.81% # Class of executed instruction
system.cpu04.op_class::FloatMisc                    0      0.00%     63.81% # Class of executed instruction
system.cpu04.op_class::FloatSqrt                    0      0.00%     63.81% # Class of executed instruction
system.cpu04.op_class::SimdAdd                      0      0.00%     63.81% # Class of executed instruction
system.cpu04.op_class::SimdAddAcc                   0      0.00%     63.81% # Class of executed instruction
system.cpu04.op_class::SimdAlu                      0      0.00%     63.81% # Class of executed instruction
system.cpu04.op_class::SimdCmp                      0      0.00%     63.81% # Class of executed instruction
system.cpu04.op_class::SimdCvt                      0      0.00%     63.81% # Class of executed instruction
system.cpu04.op_class::SimdMisc                     0      0.00%     63.81% # Class of executed instruction
system.cpu04.op_class::SimdMult                     0      0.00%     63.81% # Class of executed instruction
system.cpu04.op_class::SimdMultAcc                  0      0.00%     63.81% # Class of executed instruction
system.cpu04.op_class::SimdShift                    0      0.00%     63.81% # Class of executed instruction
system.cpu04.op_class::SimdShiftAcc                 0      0.00%     63.81% # Class of executed instruction
system.cpu04.op_class::SimdSqrt                     0      0.00%     63.81% # Class of executed instruction
system.cpu04.op_class::SimdFloatAdd                 0      0.00%     63.81% # Class of executed instruction
system.cpu04.op_class::SimdFloatAlu                 0      0.00%     63.81% # Class of executed instruction
system.cpu04.op_class::SimdFloatCmp                 0      0.00%     63.81% # Class of executed instruction
system.cpu04.op_class::SimdFloatCvt                 0      0.00%     63.81% # Class of executed instruction
system.cpu04.op_class::SimdFloatDiv                 0      0.00%     63.81% # Class of executed instruction
system.cpu04.op_class::SimdFloatMisc                0      0.00%     63.81% # Class of executed instruction
system.cpu04.op_class::SimdFloatMult                0      0.00%     63.81% # Class of executed instruction
system.cpu04.op_class::SimdFloatMultAcc             0      0.00%     63.81% # Class of executed instruction
system.cpu04.op_class::SimdFloatSqrt                0      0.00%     63.81% # Class of executed instruction
system.cpu04.op_class::SimdAes                      0      0.00%     63.81% # Class of executed instruction
system.cpu04.op_class::SimdAesMix                   0      0.00%     63.81% # Class of executed instruction
system.cpu04.op_class::SimdSha1Hash                 0      0.00%     63.81% # Class of executed instruction
system.cpu04.op_class::SimdSha1Hash2                0      0.00%     63.81% # Class of executed instruction
system.cpu04.op_class::SimdSha256Hash               0      0.00%     63.81% # Class of executed instruction
system.cpu04.op_class::SimdSha256Hash2              0      0.00%     63.81% # Class of executed instruction
system.cpu04.op_class::SimdShaSigma2                0      0.00%     63.81% # Class of executed instruction
system.cpu04.op_class::SimdShaSigma3                0      0.00%     63.81% # Class of executed instruction
system.cpu04.op_class::MemRead                   1144     24.50%     88.31% # Class of executed instruction
system.cpu04.op_class::MemWrite                   534     11.43%     99.74% # Class of executed instruction
system.cpu04.op_class::FloatMemRead                 0      0.00%     99.74% # Class of executed instruction
system.cpu04.op_class::FloatMemWrite               12      0.26%    100.00% # Class of executed instruction
system.cpu04.op_class::IprAccess                    0      0.00%    100.00% # Class of executed instruction
system.cpu04.op_class::InstPrefetch                 0      0.00%    100.00% # Class of executed instruction
system.cpu04.op_class::total                     4670                       # Class of executed instruction
system.cpu04.pwrStateClkGateDist::samples            1                       # Distribution of time spent in the clock gated state
system.cpu04.pwrStateClkGateDist::mean      129280500                       # Distribution of time spent in the clock gated state
system.cpu04.pwrStateClkGateDist::1000-5e+10            1    100.00%    100.00% # Distribution of time spent in the clock gated state
system.cpu04.pwrStateClkGateDist::min_value    129280500                       # Distribution of time spent in the clock gated state
system.cpu04.pwrStateClkGateDist::max_value    129280500                       # Distribution of time spent in the clock gated state
system.cpu04.pwrStateClkGateDist::total             1                       # Distribution of time spent in the clock gated state
system.cpu04.pwrStateResidencyTicks::ON     659260500                       # Cumulative time (in ticks) in various power states
system.cpu04.pwrStateResidencyTicks::CLK_GATED    129280500                       # Cumulative time (in ticks) in various power states
system.cpu05.Branches                             882                       # Number of branches fetched
system.cpu05.committedInsts                      4675                       # Number of instructions committed
system.cpu05.committedOps                        4681                       # Number of ops (including micro ops) committed
system.cpu05.dtb.accesses                           0                       # DTB accesses
system.cpu05.dtb.hits                               0                       # DTB hits
system.cpu05.dtb.misses                             0                       # DTB misses
system.cpu05.dtb.pwrStateResidencyTicks::UNDEFINED    788541000                       # Cumulative time (in ticks) in various power states
system.cpu05.dtb.read_accesses                      0                       # DTB read accesses
system.cpu05.dtb.read_hits                          0                       # DTB read hits
system.cpu05.dtb.read_misses                        0                       # DTB read misses
system.cpu05.dtb.write_accesses                     0                       # DTB write accesses
system.cpu05.dtb.write_hits                         0                       # DTB write hits
system.cpu05.dtb.write_misses                       0                       # DTB write misses
system.cpu05.idle_fraction                   0.984213                       # Percentage of idle cycles
system.cpu05.itb.accesses                           0                       # DTB accesses
system.cpu05.itb.hits                               0                       # DTB hits
system.cpu05.itb.misses                             0                       # DTB misses
system.cpu05.itb.pwrStateResidencyTicks::UNDEFINED    788541000                       # Cumulative time (in ticks) in various power states
system.cpu05.itb.read_accesses                      0                       # DTB read accesses
system.cpu05.itb.read_hits                          0                       # DTB read hits
system.cpu05.itb.read_misses                        0                       # DTB read misses
system.cpu05.itb.write_accesses                     0                       # DTB write accesses
system.cpu05.itb.write_hits                         0                       # DTB write hits
system.cpu05.itb.write_misses                       0                       # DTB write misses
system.cpu05.not_idle_fraction               0.015787                       # Percentage of non-idle cycles
system.cpu05.numCycles                        1577082                       # number of cpu cycles simulated
system.cpu05.numPwrStateTransitions                 2                       # Number of power state transitions
system.cpu05.numWorkItemsCompleted                  0                       # number of work items this cpu completed
system.cpu05.numWorkItemsStarted                    0                       # number of work items this cpu started
system.cpu05.num_busy_cycles             24897.001968                       # Number of busy cycles
system.cpu05.num_conditional_control_insts          450                       # number of instructions that are conditional controls
system.cpu05.num_fp_alu_accesses                   12                       # Number of float alu accesses
system.cpu05.num_fp_insts                          12                       # number of float instructions
system.cpu05.num_fp_register_reads                 12                       # number of times the floating registers were read
system.cpu05.num_fp_register_writes                 0                       # number of times the floating registers were written
system.cpu05.num_func_calls                       432                       # number of times a function call or return occured
system.cpu05.num_idle_cycles             1552184.998032                       # Number of idle cycles
system.cpu05.num_int_alu_accesses                4587                       # Number of integer alu accesses
system.cpu05.num_int_insts                       4587                       # number of integer instructions
system.cpu05.num_int_register_reads              5290                       # number of times the integer registers were read
system.cpu05.num_int_register_writes             3403                       # number of times the integer registers were written
system.cpu05.num_load_insts                      1142                       # Number of load instructions
system.cpu05.num_mem_refs                        1695                       # number of memory refs
system.cpu05.num_store_insts                      553                       # Number of store instructions
system.cpu05.num_vec_alu_accesses                   0                       # Number of vector alu accesses
system.cpu05.num_vec_insts                          0                       # number of vector instructions
system.cpu05.num_vec_register_reads                 0                       # number of times the vector registers were read
system.cpu05.num_vec_register_writes                0                       # number of times the vector registers were written
system.cpu05.op_class::No_OpClass                  10      0.21%      0.21% # Class of executed instruction
system.cpu05.op_class::IntAlu                    2975     63.53%     63.74% # Class of executed instruction
system.cpu05.op_class::IntMult                      1      0.02%     63.76% # Class of executed instruction
system.cpu05.op_class::IntDiv                       2      0.04%     63.81% # Class of executed instruction
system.cpu05.op_class::FloatAdd                     0      0.00%     63.81% # Class of executed instruction
system.cpu05.op_class::FloatCmp                     0      0.00%     63.81% # Class of executed instruction
system.cpu05.op_class::FloatCvt                     0      0.00%     63.81% # Class of executed instruction
system.cpu05.op_class::FloatMult                    0      0.00%     63.81% # Class of executed instruction
system.cpu05.op_class::FloatMultAcc                 0      0.00%     63.81% # Class of executed instruction
system.cpu05.op_class::FloatDiv                     0      0.00%     63.81% # Class of executed instruction
system.cpu05.op_class::FloatMisc                    0      0.00%     63.81% # Class of executed instruction
system.cpu05.op_class::FloatSqrt                    0      0.00%     63.81% # Class of executed instruction
system.cpu05.op_class::SimdAdd                      0      0.00%     63.81% # Class of executed instruction
system.cpu05.op_class::SimdAddAcc                   0      0.00%     63.81% # Class of executed instruction
system.cpu05.op_class::SimdAlu                      0      0.00%     63.81% # Class of executed instruction
system.cpu05.op_class::SimdCmp                      0      0.00%     63.81% # Class of executed instruction
system.cpu05.op_class::SimdCvt                      0      0.00%     63.81% # Class of executed instruction
system.cpu05.op_class::SimdMisc                     0      0.00%     63.81% # Class of executed instruction
system.cpu05.op_class::SimdMult                     0      0.00%     63.81% # Class of executed instruction
system.cpu05.op_class::SimdMultAcc                  0      0.00%     63.81% # Class of executed instruction
system.cpu05.op_class::SimdShift                    0      0.00%     63.81% # Class of executed instruction
system.cpu05.op_class::SimdShiftAcc                 0      0.00%     63.81% # Class of executed instruction
system.cpu05.op_class::SimdSqrt                     0      0.00%     63.81% # Class of executed instruction
system.cpu05.op_class::SimdFloatAdd                 0      0.00%     63.81% # Class of executed instruction
system.cpu05.op_class::SimdFloatAlu                 0      0.00%     63.81% # Class of executed instruction
system.cpu05.op_class::SimdFloatCmp                 0      0.00%     63.81% # Class of executed instruction
system.cpu05.op_class::SimdFloatCvt                 0      0.00%     63.81% # Class of executed instruction
system.cpu05.op_class::SimdFloatDiv                 0      0.00%     63.81% # Class of executed instruction
system.cpu05.op_class::SimdFloatMisc                0      0.00%     63.81% # Class of executed instruction
system.cpu05.op_class::SimdFloatMult                0      0.00%     63.81% # Class of executed instruction
system.cpu05.op_class::SimdFloatMultAcc             0      0.00%     63.81% # Class of executed instruction
system.cpu05.op_class::SimdFloatSqrt                0      0.00%     63.81% # Class of executed instruction
system.cpu05.op_class::SimdAes                      0      0.00%     63.81% # Class of executed instruction
system.cpu05.op_class::SimdAesMix                   0      0.00%     63.81% # Class of executed instruction
system.cpu05.op_class::SimdSha1Hash                 0      0.00%     63.81% # Class of executed instruction
system.cpu05.op_class::SimdSha1Hash2                0      0.00%     63.81% # Class of executed instruction
system.cpu05.op_class::SimdSha256Hash               0      0.00%     63.81% # Class of executed instruction
system.cpu05.op_class::SimdSha256Hash2              0      0.00%     63.81% # Class of executed instruction
system.cpu05.op_class::SimdShaSigma2                0      0.00%     63.81% # Class of executed instruction
system.cpu05.op_class::SimdShaSigma3                0      0.00%     63.81% # Class of executed instruction
system.cpu05.op_class::MemRead                   1146     24.47%     88.28% # Class of executed instruction
system.cpu05.op_class::MemWrite                   537     11.47%     99.74% # Class of executed instruction
system.cpu05.op_class::FloatMemRead                 0      0.00%     99.74% # Class of executed instruction
system.cpu05.op_class::FloatMemWrite               12      0.26%    100.00% # Class of executed instruction
system.cpu05.op_class::IprAccess                    0      0.00%    100.00% # Class of executed instruction
system.cpu05.op_class::InstPrefetch                 0      0.00%    100.00% # Class of executed instruction
system.cpu05.op_class::total                     4683                       # Class of executed instruction
system.cpu05.pwrStateClkGateDist::samples            1                       # Distribution of time spent in the clock gated state
system.cpu05.pwrStateClkGateDist::mean      118780500                       # Distribution of time spent in the clock gated state
system.cpu05.pwrStateClkGateDist::1000-5e+10            1    100.00%    100.00% # Distribution of time spent in the clock gated state
system.cpu05.pwrStateClkGateDist::min_value    118780500                       # Distribution of time spent in the clock gated state
system.cpu05.pwrStateClkGateDist::max_value    118780500                       # Distribution of time spent in the clock gated state
system.cpu05.pwrStateClkGateDist::total             1                       # Distribution of time spent in the clock gated state
system.cpu05.pwrStateResidencyTicks::ON     669760500                       # Cumulative time (in ticks) in various power states
system.cpu05.pwrStateResidencyTicks::CLK_GATED    118780500                       # Cumulative time (in ticks) in various power states
system.cpu06.Branches                             883                       # Number of branches fetched
system.cpu06.committedInsts                      4664                       # Number of instructions committed
system.cpu06.committedOps                        4670                       # Number of ops (including micro ops) committed
system.cpu06.dtb.accesses                           0                       # DTB accesses
system.cpu06.dtb.hits                               0                       # DTB hits
system.cpu06.dtb.misses                             0                       # DTB misses
system.cpu06.dtb.pwrStateResidencyTicks::UNDEFINED    788541000                       # Cumulative time (in ticks) in various power states
system.cpu06.dtb.read_accesses                      0                       # DTB read accesses
system.cpu06.dtb.read_hits                          0                       # DTB read hits
system.cpu06.dtb.read_misses                        0                       # DTB read misses
system.cpu06.dtb.write_accesses                     0                       # DTB write accesses
system.cpu06.dtb.write_hits                         0                       # DTB write hits
system.cpu06.dtb.write_misses                       0                       # DTB write misses
system.cpu06.idle_fraction                   0.984370                       # Percentage of idle cycles
system.cpu06.itb.accesses                           0                       # DTB accesses
system.cpu06.itb.hits                               0                       # DTB hits
system.cpu06.itb.misses                             0                       # DTB misses
system.cpu06.itb.pwrStateResidencyTicks::UNDEFINED    788541000                       # Cumulative time (in ticks) in various power states
system.cpu06.itb.read_accesses                      0                       # DTB read accesses
system.cpu06.itb.read_hits                          0                       # DTB read hits
system.cpu06.itb.read_misses                        0                       # DTB read misses
system.cpu06.itb.write_accesses                     0                       # DTB write accesses
system.cpu06.itb.write_hits                         0                       # DTB write hits
system.cpu06.itb.write_misses                       0                       # DTB write misses
system.cpu06.not_idle_fraction               0.015630                       # Percentage of non-idle cycles
system.cpu06.numCycles                        1577082                       # number of cpu cycles simulated
system.cpu06.numPwrStateTransitions                 2                       # Number of power state transitions
system.cpu06.numWorkItemsCompleted                  0                       # number of work items this cpu completed
system.cpu06.numWorkItemsStarted                    0                       # number of work items this cpu started
system.cpu06.num_busy_cycles             24650.001969                       # Number of busy cycles
system.cpu06.num_conditional_control_insts          447                       # number of instructions that are conditional controls
system.cpu06.num_fp_alu_accesses                   12                       # Number of float alu accesses
system.cpu06.num_fp_insts                          12                       # number of float instructions
system.cpu06.num_fp_register_reads                 12                       # number of times the floating registers were read
system.cpu06.num_fp_register_writes                 0                       # number of times the floating registers were written
system.cpu06.num_func_calls                       436                       # number of times a function call or return occured
system.cpu06.num_idle_cycles             1552431.998031                       # Number of idle cycles
system.cpu06.num_int_alu_accesses                4572                       # Number of integer alu accesses
system.cpu06.num_int_insts                       4572                       # number of integer instructions
system.cpu06.num_int_register_reads              5275                       # number of times the integer registers were read
system.cpu06.num_int_register_writes             3393                       # number of times the integer registers were written
system.cpu06.num_load_insts                      1140                       # Number of load instructions
system.cpu06.num_mem_refs                        1690                       # number of memory refs
system.cpu06.num_store_insts                      550                       # Number of store instructions
system.cpu06.num_vec_alu_accesses                   0                       # Number of vector alu accesses
system.cpu06.num_vec_insts                          0                       # number of vector instructions
system.cpu06.num_vec_register_reads                 0                       # number of times the vector registers were read
system.cpu06.num_vec_register_writes                0                       # number of times the vector registers were written
system.cpu06.op_class::No_OpClass                  10      0.21%      0.21% # Class of executed instruction
system.cpu06.op_class::IntAlu                    2969     63.55%     63.76% # Class of executed instruction
system.cpu06.op_class::IntMult                      1      0.02%     63.78% # Class of executed instruction
system.cpu06.op_class::IntDiv                       2      0.04%     63.83% # Class of executed instruction
system.cpu06.op_class::FloatAdd                     0      0.00%     63.83% # Class of executed instruction
system.cpu06.op_class::FloatCmp                     0      0.00%     63.83% # Class of executed instruction
system.cpu06.op_class::FloatCvt                     0      0.00%     63.83% # Class of executed instruction
system.cpu06.op_class::FloatMult                    0      0.00%     63.83% # Class of executed instruction
system.cpu06.op_class::FloatMultAcc                 0      0.00%     63.83% # Class of executed instruction
system.cpu06.op_class::FloatDiv                     0      0.00%     63.83% # Class of executed instruction
system.cpu06.op_class::FloatMisc                    0      0.00%     63.83% # Class of executed instruction
system.cpu06.op_class::FloatSqrt                    0      0.00%     63.83% # Class of executed instruction
system.cpu06.op_class::SimdAdd                      0      0.00%     63.83% # Class of executed instruction
system.cpu06.op_class::SimdAddAcc                   0      0.00%     63.83% # Class of executed instruction
system.cpu06.op_class::SimdAlu                      0      0.00%     63.83% # Class of executed instruction
system.cpu06.op_class::SimdCmp                      0      0.00%     63.83% # Class of executed instruction
system.cpu06.op_class::SimdCvt                      0      0.00%     63.83% # Class of executed instruction
system.cpu06.op_class::SimdMisc                     0      0.00%     63.83% # Class of executed instruction
system.cpu06.op_class::SimdMult                     0      0.00%     63.83% # Class of executed instruction
system.cpu06.op_class::SimdMultAcc                  0      0.00%     63.83% # Class of executed instruction
system.cpu06.op_class::SimdShift                    0      0.00%     63.83% # Class of executed instruction
system.cpu06.op_class::SimdShiftAcc                 0      0.00%     63.83% # Class of executed instruction
system.cpu06.op_class::SimdSqrt                     0      0.00%     63.83% # Class of executed instruction
system.cpu06.op_class::SimdFloatAdd                 0      0.00%     63.83% # Class of executed instruction
system.cpu06.op_class::SimdFloatAlu                 0      0.00%     63.83% # Class of executed instruction
system.cpu06.op_class::SimdFloatCmp                 0      0.00%     63.83% # Class of executed instruction
system.cpu06.op_class::SimdFloatCvt                 0      0.00%     63.83% # Class of executed instruction
system.cpu06.op_class::SimdFloatDiv                 0      0.00%     63.83% # Class of executed instruction
system.cpu06.op_class::SimdFloatMisc                0      0.00%     63.83% # Class of executed instruction
system.cpu06.op_class::SimdFloatMult                0      0.00%     63.83% # Class of executed instruction
system.cpu06.op_class::SimdFloatMultAcc             0      0.00%     63.83% # Class of executed instruction
system.cpu06.op_class::SimdFloatSqrt                0      0.00%     63.83% # Class of executed instruction
system.cpu06.op_class::SimdAes                      0      0.00%     63.83% # Class of executed instruction
system.cpu06.op_class::SimdAesMix                   0      0.00%     63.83% # Class of executed instruction
system.cpu06.op_class::SimdSha1Hash                 0      0.00%     63.83% # Class of executed instruction
system.cpu06.op_class::SimdSha1Hash2                0      0.00%     63.83% # Class of executed instruction
system.cpu06.op_class::SimdSha256Hash               0      0.00%     63.83% # Class of executed instruction
system.cpu06.op_class::SimdSha256Hash2              0      0.00%     63.83% # Class of executed instruction
system.cpu06.op_class::SimdShaSigma2                0      0.00%     63.83% # Class of executed instruction
system.cpu06.op_class::SimdShaSigma3                0      0.00%     63.83% # Class of executed instruction
system.cpu06.op_class::MemRead                   1144     24.49%     88.31% # Class of executed instruction
system.cpu06.op_class::MemWrite                   534     11.43%     99.74% # Class of executed instruction
system.cpu06.op_class::FloatMemRead                 0      0.00%     99.74% # Class of executed instruction
system.cpu06.op_class::FloatMemWrite               12      0.26%    100.00% # Class of executed instruction
system.cpu06.op_class::IprAccess                    0      0.00%    100.00% # Class of executed instruction
system.cpu06.op_class::InstPrefetch                 0      0.00%    100.00% # Class of executed instruction
system.cpu06.op_class::total                     4672                       # Class of executed instruction
system.cpu06.pwrStateClkGateDist::samples            1                       # Distribution of time spent in the clock gated state
system.cpu06.pwrStateClkGateDist::mean      107440000                       # Distribution of time spent in the clock gated state
system.cpu06.pwrStateClkGateDist::1000-5e+10            1    100.00%    100.00% # Distribution of time spent in the clock gated state
system.cpu06.pwrStateClkGateDist::min_value    107440000                       # Distribution of time spent in the clock gated state
[...]
system.ruby.network.int_links39.credit_link.pwrStateResidencyTicks::UNDEFINED    788541000                       # Cumulative time (in ticks) in various power states
system.ruby.network.int_links39.network_link.pwrStateResidencyTicks::UNDEFINED    788541000                       # Cumulative time (in ticks) in various power states
system.ruby.network.int_links40.credit_link.pwrStateResidencyTicks::UNDEFINED    788541000                       # Cumulative time (in ticks) in various power states
system.ruby.network.int_links40.network_link.pwrStateResidencyTicks::UNDEFINED    788541000                       # Cumulative time (in ticks) in various power states
system.ruby.network.int_links41.credit_link.pwrStateResidencyTicks::UNDEFINED    788541000                       # Cumulative time (in ticks) in various power states
system.ruby.network.int_links41.network_link.pwrStateResidencyTicks::UNDEFINED    788541000                       # Cumulative time (in ticks) in various power states
system.ruby.network.int_links42.credit_link.pwrStateResidencyTicks::UNDEFINED    788541000                       # Cumulative time (in ticks) in various power states
system.ruby.network.int_links42.network_link.pwrStateResidencyTicks::UNDEFINED    788541000                       # Cumulative time (in ticks) in various power states
system.ruby.network.int_links43.credit_link.pwrStateResidencyTicks::UNDEFINED    788541000                       # Cumulative time (in ticks) in various power states
system.ruby.network.int_links43.network_link.pwrStateResidencyTicks::UNDEFINED    788541000                       # Cumulative time (in ticks) in various power states
system.ruby.network.int_links44.credit_link.pwrStateResidencyTicks::UNDEFINED    788541000                       # Cumulative time (in ticks) in various power states
system.ruby.network.int_links44.network_link.pwrStateResidencyTicks::UNDEFINED    788541000                       # Cumulative time (in ticks) in various power states
system.ruby.network.int_links45.credit_link.pwrStateResidencyTicks::UNDEFINED    788541000                       # Cumulative time (in ticks) in various power states
system.ruby.network.int_links45.network_link.pwrStateResidencyTicks::UNDEFINED    788541000                       # Cumulative time (in ticks) in various power states
system.ruby.network.int_links46.credit_link.pwrStateResidencyTicks::UNDEFINED    788541000                       # Cumulative time (in ticks) in various power states
system.ruby.network.int_links46.network_link.pwrStateResidencyTicks::UNDEFINED    788541000                       # Cumulative time (in ticks) in various power states
system.ruby.network.int_links47.credit_link.pwrStateResidencyTicks::UNDEFINED    788541000                       # Cumulative time (in ticks) in various power states
system.ruby.network.int_links47.network_link.pwrStateResidencyTicks::UNDEFINED    788541000                       # Cumulative time (in ticks) in various power states
system.ruby.network.netifs00.pwrStateResidencyTicks::UNDEFINED    788541000                       # Cumulative time (in ticks) in various power states
system.ruby.network.netifs01.pwrStateResidencyTicks::UNDEFINED    788541000                       # Cumulative time (in ticks) in various power states
system.ruby.network.netifs02.pwrStateResidencyTicks::UNDEFINED    788541000                       # Cumulative time (in ticks) in various power states
system.ruby.network.netifs03.pwrStateResidencyTicks::UNDEFINED    788541000                       # Cumulative time (in ticks) in various power states
system.ruby.network.netifs04.pwrStateResidencyTicks::UNDEFINED    788541000                       # Cumulative time (in ticks) in various power states
system.ruby.network.netifs05.pwrStateResidencyTicks::UNDEFINED    788541000                       # Cumulative time (in ticks) in various power states
system.ruby.network.netifs06.pwrStateResidencyTicks::UNDEFINED    788541000                       # Cumulative time (in ticks) in various power states
system.ruby.network.netifs07.pwrStateResidencyTicks::UNDEFINED    788541000                       # Cumulative time (in ticks) in various power states
system.ruby.network.netifs08.pwrStateResidencyTicks::UNDEFINED    788541000                       # Cumulative time (in ticks) in various power states
system.ruby.network.netifs09.pwrStateResidencyTicks::UNDEFINED    788541000                       # Cumulative time (in ticks) in various power states
system.ruby.network.netifs10.pwrStateResidencyTicks::UNDEFINED    788541000                       # Cumulative time (in ticks) in various power states
system.ruby.network.netifs11.pwrStateResidencyTicks::UNDEFINED    788541000                       # Cumulative time (in ticks) in various power states
system.ruby.network.netifs12.pwrStateResidencyTicks::UNDEFINED    788541000                       # Cumulative time (in ticks) in various power states
system.ruby.network.netifs13.pwrStateResidencyTicks::UNDEFINED    788541000                       # Cumulative time (in ticks) in various power states
system.ruby.network.netifs14.pwrStateResidencyTicks::UNDEFINED    788541000                       # Cumulative time (in ticks) in various power states
system.ruby.network.netifs15.pwrStateResidencyTicks::UNDEFINED    788541000                       # Cumulative time (in ticks) in various power states
system.ruby.network.netifs16.pwrStateResidencyTicks::UNDEFINED    788541000                       # Cumulative time (in ticks) in various power states
system.ruby.network.netifs17.pwrStateResidencyTicks::UNDEFINED    788541000                       # Cumulative time (in ticks) in various power states
system.ruby.network.netifs18.pwrStateResidencyTicks::UNDEFINED    788541000                       # Cumulative time (in ticks) in various power states
system.ruby.network.netifs19.pwrStateResidencyTicks::UNDEFINED    788541000                       # Cumulative time (in ticks) in various power states
system.ruby.network.netifs20.pwrStateResidencyTicks::UNDEFINED    788541000                       # Cumulative time (in ticks) in various power states
system.ruby.network.netifs21.pwrStateResidencyTicks::UNDEFINED    788541000                       # Cumulative time (in ticks) in various power states
system.ruby.network.netifs22.pwrStateResidencyTicks::UNDEFINED    788541000                       # Cumulative time (in ticks) in various power states
system.ruby.network.netifs23.pwrStateResidencyTicks::UNDEFINED    788541000                       # Cumulative time (in ticks) in various power states
system.ruby.network.netifs24.pwrStateResidencyTicks::UNDEFINED    788541000                       # Cumulative time (in ticks) in various power states
system.ruby.network.netifs25.pwrStateResidencyTicks::UNDEFINED    788541000                       # Cumulative time (in ticks) in various power states
system.ruby.network.netifs26.pwrStateResidencyTicks::UNDEFINED    788541000                       # Cumulative time (in ticks) in various power states
system.ruby.network.netifs27.pwrStateResidencyTicks::UNDEFINED    788541000                       # Cumulative time (in ticks) in various power states
system.ruby.network.netifs28.pwrStateResidencyTicks::UNDEFINED    788541000                       # Cumulative time (in ticks) in various power states
system.ruby.network.netifs29.pwrStateResidencyTicks::UNDEFINED    788541000                       # Cumulative time (in ticks) in various power states
system.ruby.network.netifs30.pwrStateResidencyTicks::UNDEFINED    788541000                       # Cumulative time (in ticks) in various power states
system.ruby.network.netifs31.pwrStateResidencyTicks::UNDEFINED    788541000                       # Cumulative time (in ticks) in various power states
system.ruby.network.netifs32.pwrStateResidencyTicks::UNDEFINED    788541000                       # Cumulative time (in ticks) in various power states
system.ruby.network.netifs33.pwrStateResidencyTicks::UNDEFINED    788541000                       # Cumulative time (in ticks) in various power states
system.ruby.network.netifs34.pwrStateResidencyTicks::UNDEFINED    788541000                       # Cumulative time (in ticks) in various power states
system.ruby.network.netifs35.pwrStateResidencyTicks::UNDEFINED    788541000                       # Cumulative time (in ticks) in various power states
system.ruby.network.packet_network_latency |      556165                       |      591841                       |      149699                      
system.ruby.network.packet_queueing_latency |      182198                       |       32642                       |        6702                      
system.ruby.network.packets_injected     |       19272     42.70%     42.70% |       19472     43.15%     85.85% |        6387     14.15%    100.00%
system.ruby.network.packets_injected::total        45131                      
system.ruby.network.packets_received     |       19272     42.70%     42.70% |       19472     43.15%     85.85% |        6387     14.15%    100.00%
system.ruby.network.packets_received::total        45131                      
system.ruby.network.pwrStateResidencyTicks::UNDEFINED    788541000                       # Cumulative time (in ticks) in various power states
system.ruby.network.routers00.buffer_reads        91621                      
system.ruby.network.routers00.buffer_writes        91621                      
system.ruby.network.routers00.crossbar_activity        91621                      
system.ruby.network.routers00.pwrStateResidencyTicks::UNDEFINED    788541000                       # Cumulative time (in ticks) in various power states
system.ruby.network.routers00.sw_input_arbiter_activity        91635                      
system.ruby.network.routers00.sw_output_arbiter_activity        91621                      
system.ruby.network.routers01.buffer_reads        40229                      
system.ruby.network.routers01.buffer_writes        40229                      
system.ruby.network.routers01.crossbar_activity        40229                      
system.ruby.network.routers01.pwrStateResidencyTicks::UNDEFINED    788541000                       # Cumulative time (in ticks) in various power states
system.ruby.network.routers01.sw_input_arbiter_activity        40242                      
system.ruby.network.routers01.sw_output_arbiter_activity        40229                      
system.ruby.network.routers02.buffer_reads        26586                      
system.ruby.network.routers02.buffer_writes        26586                      
system.ruby.network.routers02.crossbar_activity        26586                      
system.ruby.network.routers02.pwrStateResidencyTicks::UNDEFINED    788541000                       # Cumulative time (in ticks) in various power states
system.ruby.network.routers02.sw_input_arbiter_activity        26599                      
system.ruby.network.routers02.sw_output_arbiter_activity        26586                      
system.ruby.network.routers03.buffer_reads        15240                      
system.ruby.network.routers03.buffer_writes        15240                      
system.ruby.network.routers03.crossbar_activity        15240                      
system.ruby.network.routers03.pwrStateResidencyTicks::UNDEFINED    788541000                       # Cumulative time (in ticks) in various power states
system.ruby.network.routers03.sw_input_arbiter_activity        15241                      
system.ruby.network.routers03.sw_output_arbiter_activity        15240                      
system.ruby.network.routers04.buffer_reads        51376                      
system.ruby.network.routers04.buffer_writes        51376                      
system.ruby.network.routers04.crossbar_activity        51376                      
system.ruby.network.routers04.pwrStateResidencyTicks::UNDEFINED    788541000                       # Cumulative time (in ticks) in various power states
system.ruby.network.routers04.sw_input_arbiter_activity        51380                      
system.ruby.network.routers04.sw_output_arbiter_activity        51376                      
system.ruby.network.routers05.buffer_reads        20911                      
system.ruby.network.routers05.buffer_writes        20911                      
system.ruby.network.routers05.crossbar_activity        20911                      
system.ruby.network.routers05.pwrStateResidencyTicks::UNDEFINED    788541000                       # Cumulative time (in ticks) in various power states
system.ruby.network.routers05.sw_input_arbiter_activity        20916                      
system.ruby.network.routers05.sw_output_arbiter_activity        20911                      
system.ruby.network.routers06.buffer_reads        14825                      
system.ruby.network.routers06.buffer_writes        14825                      
system.ruby.network.routers06.crossbar_activity        14825                      
system.ruby.network.routers06.pwrStateResidencyTicks::UNDEFINED    788541000                       # Cumulative time (in ticks) in various power states
system.ruby.network.routers06.sw_input_arbiter_activity        14831                      
system.ruby.network.routers06.sw_output_arbiter_activity        14825                      
system.ruby.network.routers07.buffer_reads        11709                      
system.ruby.network.routers07.buffer_writes        11709                      
system.ruby.network.routers07.crossbar_activity        11709                      
system.ruby.network.routers07.pwrStateResidencyTicks::UNDEFINED    788541000                       # Cumulative time (in ticks) in various power states
system.ruby.network.routers07.sw_input_arbiter_activity        11713                      
system.ruby.network.routers07.sw_output_arbiter_activity        11709                      
system.ruby.network.routers08.buffer_reads        34733                      
system.ruby.network.routers08.buffer_writes        34733                      
system.ruby.network.routers08.crossbar_activity        34733                      
system.ruby.network.routers08.pwrStateResidencyTicks::UNDEFINED    788541000                       # Cumulative time (in ticks) in various power states
system.ruby.network.routers08.sw_input_arbiter_activity        34735                      
system.ruby.network.routers08.sw_output_arbiter_activity        34733                      
system.ruby.network.routers09.buffer_reads        16273                      
system.ruby.network.routers09.buffer_writes        16273                      
system.ruby.network.routers09.crossbar_activity        16273                      
system.ruby.network.routers09.pwrStateResidencyTicks::UNDEFINED    788541000                       # Cumulative time (in ticks) in various power states
system.ruby.network.routers09.sw_input_arbiter_activity        16278                      
system.ruby.network.routers09.sw_output_arbiter_activity        16273                      
system.ruby.network.routers10.buffer_reads        14825                      
system.ruby.network.routers10.buffer_writes        14825                      
system.ruby.network.routers10.crossbar_activity        14825                      
system.ruby.network.routers10.pwrStateResidencyTicks::UNDEFINED    788541000                       # Cumulative time (in ticks) in various power states
system.ruby.network.routers10.sw_input_arbiter_activity        14836                      
system.ruby.network.routers10.sw_output_arbiter_activity        14825                      
system.ruby.network.routers11.buffer_reads        10981                      
system.ruby.network.routers11.buffer_writes        10981                      
system.ruby.network.routers11.crossbar_activity        10981                      
system.ruby.network.routers11.pwrStateResidencyTicks::UNDEFINED    788541000                       # Cumulative time (in ticks) in various power states
system.ruby.network.routers11.sw_input_arbiter_activity        10989                      
system.ruby.network.routers11.sw_output_arbiter_activity        10981                      
system.ruby.network.routers12.buffer_reads        24652                      
system.ruby.network.routers12.buffer_writes        24652                      
system.ruby.network.routers12.crossbar_activity        24652                      
system.ruby.network.routers12.pwrStateResidencyTicks::UNDEFINED    788541000                       # Cumulative time (in ticks) in various power states
system.ruby.network.routers12.sw_input_arbiter_activity        24653                      
system.ruby.network.routers12.sw_output_arbiter_activity        24652                      
system.ruby.network.routers13.buffer_reads        20847                      
system.ruby.network.routers13.buffer_writes        20847                      
system.ruby.network.routers13.crossbar_activity        20847                      
system.ruby.network.routers13.pwrStateResidencyTicks::UNDEFINED    788541000                       # Cumulative time (in ticks) in various power states
system.ruby.network.routers13.sw_input_arbiter_activity        20850                      
system.ruby.network.routers13.sw_output_arbiter_activity        20847                      
system.ruby.network.routers14.buffer_reads        16070                      
system.ruby.network.routers14.buffer_writes        16070                      
system.ruby.network.routers14.crossbar_activity        16070                      
system.ruby.network.routers14.pwrStateResidencyTicks::UNDEFINED    788541000                       # Cumulative time (in ticks) in various power states
system.ruby.network.routers14.sw_input_arbiter_activity        16074                      
system.ruby.network.routers14.sw_output_arbiter_activity        16070                      
system.ruby.network.routers15.buffer_reads        10376                      
system.ruby.network.routers15.buffer_writes        10376                      
system.ruby.network.routers15.crossbar_activity        10376                      
system.ruby.network.routers15.pwrStateResidencyTicks::UNDEFINED    788541000                       # Cumulative time (in ticks) in various power states
system.ruby.network.routers15.sw_input_arbiter_activity        10388                      
system.ruby.network.routers15.sw_output_arbiter_activity        10376                      
system.ruby.outstanding_req_hist_seqr::bucket_size            1                      
system.ruby.outstanding_req_hist_seqr::max_bucket            9                      
system.ruby.outstanding_req_hist_seqr::samples       272089                      
system.ruby.outstanding_req_hist_seqr::mean            1                      
system.ruby.outstanding_req_hist_seqr::gmean            1                      
system.ruby.outstanding_req_hist_seqr    |           0      0.00%      0.00% |      272089    100.00%    100.00% |           0      0.00%    100.00% |           0      0.00%    100.00% |           0      0.00%    100.00% |           0      0.00%    100.00% |           0      0.00%    100.00% |           0      0.00%    100.00% |           0      0.00%    100.00% |           0      0.00%    100.00%
system.ruby.outstanding_req_hist_seqr::total       272089                      
system.ruby.pwrStateResidencyTicks::UNDEFINED    788541000                       # Cumulative time (in ticks) in various power states
system.sys_port_proxy.pwrStateResidencyTicks::UNDEFINED    788541000                       # Cumulative time (in ticks) in various power states
system.voltage_domain.voltage                       1                       # Voltage in Volts

---------- End Simulation Statistics   ----------
