
---------- Begin Simulation Statistics ----------
final_tick                                  527294000                       # Number of ticks from beginning of simulation (restored from checkpoints and never reset)
host_inst_rate                                  16692                       # Simulator instruction rate (inst/s)
host_mem_usage                                5159404                       # Number of bytes of host memory used
host_op_rate                                    16743                       # Simulator op (including micro ops) rate (op/s)
host_seconds                                     7.39                       # Real time elapsed on the host
host_tick_rate                               71384348                       # Simulator tick rate (ticks/s)
sim_freq                                 1000000000000                       # Frequency of simulated ticks
sim_insts                                      123296                       # Number of instructions simulated
sim_ops                                        123678                       # Number of ops (including micro ops) simulated
sim_seconds                                  0.000527                       # Number of seconds simulated
sim_ticks                                   527294000                       # Number of ticks simulated
system.clk_domain.clock                          1000                       # Clock period in ticks
system.cpu00.Branches                           22346                       # Number of branches fetched
system.cpu00.committedInsts                    100000                       # Number of instructions committed
system.cpu00.committedOps                      100293                       # Number of ops (including micro ops) committed
system.cpu00.dtb.accesses                           0                       # DTB accesses
system.cpu00.dtb.hits                               0                       # DTB hits
system.cpu00.dtb.misses                             0                       # DTB misses
system.cpu00.dtb.pwrStateResidencyTicks::UNDEFINED    527294000                       # Cumulative time (in ticks) in various power states
system.cpu00.dtb.read_accesses                      0                       # DTB read accesses
system.cpu00.dtb.read_hits                          0                       # DTB read hits
system.cpu00.dtb.read_misses                        0                       # DTB read misses
system.cpu00.dtb.write_accesses                     0                       # DTB write accesses
system.cpu00.dtb.write_hits                         0                       # DTB write hits
system.cpu00.dtb.write_misses                       0                       # DTB write misses
system.cpu00.idle_fraction                   0.003327                       # Percentage of idle cycles
system.cpu00.itb.accesses                           0                       # DTB accesses
system.cpu00.itb.hits                               0                       # DTB hits
system.cpu00.itb.misses                             0                       # DTB misses
system.cpu00.itb.pwrStateResidencyTicks::UNDEFINED    527294000                       # Cumulative time (in ticks) in various power states
system.cpu00.itb.read_accesses                      0                       # DTB read accesses
system.cpu00.itb.read_hits                          0                       # DTB read hits
system.cpu00.itb.read_misses                        0                       # DTB read misses
system.cpu00.itb.write_accesses                     0                       # DTB write accesses
system.cpu00.itb.write_hits                         0                       # DTB write hits
system.cpu00.itb.write_misses                       0                       # DTB write misses
system.cpu00.not_idle_fraction               0.996673                       # Percentage of non-idle cycles
system.cpu00.numCycles                        1054588                       # number of cpu cycles simulated
system.cpu00.numPwrStateTransitions                 2                       # Number of power state transitions
system.cpu00.numWorkItemsCompleted                  0                       # number of work items this cpu completed
system.cpu00.numWorkItemsStarted                    0                       # number of work items this cpu started
system.cpu00.num_busy_cycles             1051079.000007                       # Number of busy cycles
system.cpu00.num_conditional_control_insts        15926                       # number of instructions that are conditional controls
system.cpu00.num_fp_alu_accesses                   12                       # Number of float alu accesses
system.cpu00.num_fp_insts                          12                       # number of float instructions
system.cpu00.num_fp_register_reads                 12                       # number of times the floating registers were read
system.cpu00.num_fp_register_writes                 0                       # number of times the floating registers were written
system.cpu00.num_func_calls                      6420                       # number of times a function call or return occured
system.cpu00.num_idle_cycles              3508.999993                       # Number of idle cycles
system.cpu00.num_int_alu_accesses               98833                       # Number of integer alu accesses
system.cpu00.num_int_insts                      98833                       # number of integer instructions
system.cpu00.num_int_register_reads            120838                       # number of times the integer registers were read
system.cpu00.num_int_register_writes            64473                       # number of times the integer registers were written
system.cpu00.num_load_insts                     20291                       # Number of load instructions
system.cpu00.num_mem_refs                       36557                       # number of memory refs
system.cpu00.num_store_insts                    16266                       # Number of store instructions
system.cpu00.num_vec_alu_accesses                   0                       # Number of vector alu accesses
system.cpu00.num_vec_insts                          0                       # number of vector instructions
system.cpu00.num_vec_register_reads                 0                       # number of times the vector registers were read
system.cpu00.num_vec_register_writes                0                       # number of times the vector registers were written
system.cpu00.op_class::No_OpClass                 859      0.86%      0.86% # Class of executed instruction
system.cpu00.op_class::IntAlu                   62913     62.68%     63.54% # Class of executed instruction
system.cpu00.op_class::IntMult                     30      0.03%     63.57% # Class of executed instruction
system.cpu00.op_class::IntDiv                       6      0.01%     63.58% # Class of executed instruction
system.cpu00.op_class::FloatAdd                     0      0.00%     63.58% # Class of executed instruction
system.cpu00.op_class::FloatCmp                     0      0.00%     63.58% # Class of executed instruction
system.cpu00.op_class::FloatCvt                     0      0.00%     63.58% # Class of executed instruction
system.cpu00.op_class::FloatMult                    0      0.00%     63.58% # Class of executed instruction
system.cpu00.op_class::FloatMultAcc                 0      0.00%     63.58% # Class of executed instruction
system.cpu00.op_class::FloatDiv                     0      0.00%     63.58% # Class of executed instruction
system.cpu00.op_class::FloatMisc                    0      0.00%     63.58% # Class of executed instruction
system.cpu00.op_class::FloatSqrt                    0      0.00%     63.58% # Class of executed instruction
system.cpu00.op_class::SimdAdd                      0      0.00%     63.58% # Class of executed instruction
system.cpu00.op_class::SimdAddAcc                   0      0.00%     63.58% # Class of executed instruction
system.cpu00.op_class::SimdAlu                      0      0.00%     63.58% # Class of executed instruction
system.cpu00.op_class::SimdCmp                      0      0.00%     63.58% # Class of executed instruction
system.cpu00.op_class::SimdCvt                      0      0.00%     63.58% # Class of executed instruction
system.cpu00.op_class::SimdMisc                     0      0.00%     63.58% # Class of executed instruction
system.cpu00.op_class::SimdMult                     0      0.00%     63.58% # Class of executed instruction
system.cpu00.op_class::SimdMultAcc                  0      0.00%     63.58% # Class of executed instruction
system.cpu00.op_class::SimdShift                    0      0.00%     63.58% # Class of executed instruction
system.cpu00.op_class::SimdShiftAcc                 0      0.00%     63.58% # Class of executed instruction
system.cpu00.op_class::SimdSqrt                     0      0.00%     63.58% # Class of executed instruction
system.cpu00.op_class::SimdFloatAdd                 0      0.00%     63.58% # Class of executed instruction
system.cpu00.op_class::SimdFloatAlu                 0      0.00%     63.58% # Class of executed instruction
system.cpu00.op_class::SimdFloatCmp                 0      0.00%     63.58% # Class of executed instruction
system.cpu00.op_class::SimdFloatCvt                 0      0.00%     63.58% # Class of executed instruction
system.cpu00.op_class::SimdFloatDiv                 0      0.00%     63.58% # Class of executed instruction
system.cpu00.op_class::SimdFloatMisc                0      0.00%     63.58% # Class of executed instruction
system.cpu00.op_class::SimdFloatMult                0      0.00%     63.58% # Class of executed instruction
system.cpu00.op_class::SimdFloatMultAcc             0      0.00%     63.58% # Class of executed instruction
system.cpu00.op_class::SimdFloatSqrt                0      0.00%     63.58% # Class of executed instruction
system.cpu00.op_class::SimdAes                      0      0.00%     63.58% # Class of executed instruction
system.cpu00.op_class::SimdAesMix                   0      0.00%     63.58% # Class of executed instruction
system.cpu00.op_class::SimdSha1Hash                 0      0.00%     63.58% # Class of executed instruction
system.cpu00.op_class::SimdSha1Hash2                0      0.00%     63.58% # Class of executed instruction
system.cpu00.op_class::SimdSha256Hash               0      0.00%     63.58% # Class of executed instruction
system.cpu00.op_class::SimdSha256Hash2              0      0.00%     63.58% # Class of executed instruction
system.cpu00.op_class::SimdShaSigma2                0      0.00%     63.58% # Class of executed instruction
system.cpu00.op_class::SimdShaSigma3                0      0.00%     63.58% # Class of executed instruction
system.cpu00.op_class::MemRead                  20576     20.50%     84.08% # Class of executed instruction
system.cpu00.op_class::MemWrite                 15969     15.91%     99.99% # Class of executed instruction
system.cpu00.op_class::FloatMemRead                 0      0.00%     99.99% # Class of executed instruction
system.cpu00.op_class::FloatMemWrite               12      0.01%    100.00% # Class of executed instruction
system.cpu00.op_class::IprAccess                    0      0.00%    100.00% # Class of executed instruction
system.cpu00.op_class::InstPrefetch                 0      0.00%    100.00% # Class of executed instruction
system.cpu00.op_class::total                   100365                       # Class of executed instruction
system.cpu00.pwrStateClkGateDist::samples            1                       # Distribution of time spent in the clock gated state
system.cpu00.pwrStateClkGateDist::mean        1754500                       # Distribution of time spent in the clock gated state
system.cpu00.pwrStateClkGateDist::1000-5e+10            1    100.00%    100.00% # Distribution of time spent in the clock gated state
system.cpu00.pwrStateClkGateDist::min_value      1754500                       # Distribution of time spent in the clock gated state
system.cpu00.pwrStateClkGateDist::max_value      1754500                       # Distribution of time spent in the clock gated state
system.cpu00.pwrStateClkGateDist::total             1                       # Distribution of time spent in the clock gated state
system.cpu00.pwrStateResidencyTicks::ON     525539500                       # Cumulative time (in ticks) in various power states
system.cpu00.pwrStateResidencyTicks::CLK_GATED      1754500                       # Cumulative time (in ticks) in various power states
system.cpu00.workload.numSyscalls                  71                       # Number of system calls
system.cpu01.Branches                             285                       # Number of branches fetched
system.cpu01.committedInsts                      1478                       # Number of instructions committed
system.cpu01.committedOps                        1484                       # Number of ops (including micro ops) committed
system.cpu01.dtb.accesses                           0                       # DTB accesses
system.cpu01.dtb.hits                               0                       # DTB hits
system.cpu01.dtb.misses                             0                       # DTB misses
system.cpu01.dtb.pwrStateResidencyTicks::UNDEFINED    527294000                       # Cumulative time (in ticks) in various power states
system.cpu01.dtb.read_accesses                      0                       # DTB read accesses
system.cpu01.dtb.read_hits                          0                       # DTB read hits
system.cpu01.dtb.read_misses                        0                       # DTB read misses
system.cpu01.dtb.write_accesses                     0                       # DTB write accesses
system.cpu01.dtb.write_hits                         0                       # DTB write hits
system.cpu01.dtb.write_misses                       0                       # DTB write misses
system.cpu01.idle_fraction                   0.974696                       # Percentage of idle cycles
system.cpu01.itb.accesses                           0                       # DTB accesses
system.cpu01.itb.hits                               0                       # DTB hits
system.cpu01.itb.misses                             0                       # DTB misses
system.cpu01.itb.pwrStateResidencyTicks::UNDEFINED    527294000                       # Cumulative time (in ticks) in various power states
system.cpu01.itb.read_accesses                      0                       # DTB read accesses
system.cpu01.itb.read_hits                          0                       # DTB read hits
system.cpu01.itb.read_misses                        0                       # DTB read misses
system.cpu01.itb.write_accesses                     0                       # DTB write accesses
system.cpu01.itb.write_hits                         0                       # DTB write hits
system.cpu01.itb.write_misses                       0                       # DTB write misses
system.cpu01.not_idle_fraction               0.025304                       # Percentage of non-idle cycles
system.cpu01.numCycles                        1054587                       # number of cpu cycles simulated
system.cpu01.numPwrStateTransitions                 2                       # Number of power state transitions
system.cpu01.numWorkItemsCompleted                  0                       # number of work items this cpu completed
system.cpu01.numWorkItemsStarted                    0                       # number of work items this cpu started
system.cpu01.num_busy_cycles             26684.976646                       # Number of busy cycles
system.cpu01.num_conditional_control_insts          150                       # number of instructions that are conditional controls
system.cpu01.num_fp_alu_accesses                   12                       # Number of float alu accesses
system.cpu01.num_fp_insts                          12                       # number of float instructions
system.cpu01.num_fp_register_reads                 12                       # number of times the floating registers were read
system.cpu01.num_fp_register_writes                 0                       # number of times the floating registers were written
system.cpu01.num_func_calls                       135                       # number of times a function call or return occured
system.cpu01.num_idle_cycles             1027902.023354                       # Number of idle cycles
system.cpu01.num_int_alu_accesses                1454                       # Number of integer alu accesses
system.cpu01.num_int_insts                       1454                       # number of integer instructions
system.cpu01.num_int_register_reads              1691                       # number of times the integer registers were read
system.cpu01.num_int_register_writes             1036                       # number of times the integer registers were written
system.cpu01.num_load_insts                       343                       # Number of load instructions
system.cpu01.num_mem_refs                         562                       # number of memory refs
system.cpu01.num_store_insts                      219                       # Number of store instructions
system.cpu01.num_vec_alu_accesses                   0                       # Number of vector alu accesses
system.cpu01.num_vec_insts                          0                       # number of vector instructions
system.cpu01.num_vec_register_reads                 0                       # number of times the vector registers were read
system.cpu01.num_vec_register_writes                0                       # number of times the vector registers were written
system.cpu01.op_class::No_OpClass                  10      0.67%      0.67% # Class of executed instruction
system.cpu01.op_class::IntAlu                     911     61.31%     61.98% # Class of executed instruction
system.cpu01.op_class::IntMult                      1      0.07%     62.05% # Class of executed instruction
system.cpu01.op_class::IntDiv                       2      0.13%     62.18% # Class of executed instruction
system.cpu01.op_class::FloatAdd                     0      0.00%     62.18% # Class of executed instruction
system.cpu01.op_class::FloatCmp                     0      0.00%     62.18% # Class of executed instruction
system.cpu01.op_class::FloatCvt                     0      0.00%     62.18% # Class of executed instruction
system.cpu01.op_class::FloatMult                    0      0.00%     62.18% # Class of executed instruction
system.cpu01.op_class::FloatMultAcc                 0      0.00%     62.18% # Class of executed instruction
system.cpu01.op_class::FloatDiv                     0      0.00%     62.18% # Class of executed instruction
system.cpu01.op_class::FloatMisc                    0      0.00%     62.18% # Class of executed instruction
system.cpu01.op_class::FloatSqrt                    0      0.00%     62.18% # Class of executed instruction
system.cpu01.op_class::SimdAdd                      0      0.00%     62.18% # Class of executed instruction
system.cpu01.op_class::SimdAddAcc                   0      0.00%     62.18% # Class of executed instruction
system.cpu01.op_class::SimdAlu                      0      0.00%     62.18% # Class of executed instruction
system.cpu01.op_class::SimdCmp                      0      0.00%     62.18% # Class of executed instruction
system.cpu01.op_class::SimdCvt                      0      0.00%     62.18% # Class of executed instruction
system.cpu01.op_class::SimdMisc                     0      0.00%     62.18% # Class of executed instruction
system.cpu01.op_class::SimdMult                     0      0.00%     62.18% # Class of executed instruction
system.cpu01.op_class::SimdMultAcc                  0      0.00%     62.18% # Class of executed instruction
system.cpu01.op_class::SimdShift                    0      0.00%     62.18% # Class of executed instruction
system.cpu01.op_class::SimdShiftAcc                 0      0.00%     62.18% # Class of executed instruction
system.cpu01.op_class::SimdSqrt                     0      0.00%     62.18% # Class of executed instruction
system.cpu01.op_class::SimdFloatAdd                 0      0.00%     62.18% # Class of executed instruction
system.cpu01.op_class::SimdFloatAlu                 0      0.00%     62.18% # Class of executed instruction
system.cpu01.op_class::SimdFloatCmp                 0      0.00%     62.18% # Class of executed instruction
system.cpu01.op_class::SimdFloatCvt                 0      0.00%     62.18% # Class of executed instruction
system.cpu01.op_class::SimdFloatDiv                 0      0.00%     62.18% # Class of executed instruction
system.cpu01.op_class::SimdFloatMisc                0      0.00%     62.18% # Class of executed instruction
system.cpu01.op_class::SimdFloatMult                0      0.00%     62.18% # Class of executed instruction
system.cpu01.op_class::SimdFloatMultAcc             0      0.00%     62.18% # Class of executed instruction
system.cpu01.op_class::SimdFloatSqrt                0      0.00%     62.18% # Class of executed instruction
system.cpu01.op_class::SimdAes                      0      0.00%     62.18% # Class of executed instruction
system.cpu01.op_class::SimdAesMix                   0      0.00%     62.18% # Class of executed instruction
system.cpu01.op_class::SimdSha1Hash                 0      0.00%     62.18% # Class of executed instruction
system.cpu01.op_class::SimdSha1Hash2                0      0.00%     62.18% # Class of executed instruction
system.cpu01.op_class::SimdSha256Hash               0      0.00%     62.18% # Class of executed instruction
system.cpu01.op_class::SimdSha256Hash2              0      0.00%     62.18% # Class of executed instruction
system.cpu01.op_class::SimdShaSigma2                0      0.00%     62.18% # Class of executed instruction
system.cpu01.op_class::SimdShaSigma3                0      0.00%     62.18% # Class of executed instruction
system.cpu01.op_class::MemRead                    347     23.35%     85.53% # Class of executed instruction
system.cpu01.op_class::MemWrite                   203     13.66%     99.19% # Class of executed instruction
system.cpu01.op_class::FloatMemRead                 0      0.00%     99.19% # Class of executed instruction
system.cpu01.op_class::FloatMemWrite               12      0.81%    100.00% # Class of executed instruction
system.cpu01.op_class::IprAccess                    0      0.00%    100.00% # Class of executed instruction
system.cpu01.op_class::InstPrefetch                 0      0.00%    100.00% # Class of executed instruction
system.cpu01.op_class::total                     1486                       # Class of executed instruction
system.cpu01.pwrStateClkGateDist::samples            1                       # Distribution of time spent in the clock gated state
system.cpu01.pwrStateClkGateDist::mean      114183500                       # Distribution of time spent in the clock gated state
system.cpu01.pwrStateClkGateDist::1000-5e+10            1    100.00%    100.00% # Distribution of time spent in the clock gated state
system.cpu01.pwrStateClkGateDist::min_value    114183500                       # Distribution of time spent in the clock gated state
system.cpu01.pwrStateClkGateDist::max_value    114183500                       # Distribution of time spent in the clock gated state
system.cpu01.pwrStateClkGateDist::total             1                       # Distribution of time spent in the clock gated state
system.cpu01.pwrStateResidencyTicks::ON     413110500                       # Cumulative time (in ticks) in various power states
system.cpu01.pwrStateResidencyTicks::CLK_GATED    114183500                       # Cumulative time (in ticks) in various power states
system.cpu02.Branches                             324                       # Number of branches fetched
system.cpu02.committedInsts                      1687                       # Number of instructions committed
system.cpu02.committedOps                        1693                       # Number of ops (including micro ops) committed
system.cpu02.dtb.accesses                           0                       # DTB accesses
system.cpu02.dtb.hits                               0                       # DTB hits
system.cpu02.dtb.misses                             0                       # DTB misses
system.cpu02.dtb.pwrStateResidencyTicks::UNDEFINED    527294000                       # Cumulative time (in ticks) in various power states
system.cpu02.dtb.read_accesses                      0                       # DTB read accesses
system.cpu02.dtb.read_hits                          0                       # DTB read hits
system.cpu02.dtb.read_misses                        0                       # DTB read misses
system.cpu02.dtb.write_accesses                     0                       # DTB write accesses
system.cpu02.dtb.write_hits                         0                       # DTB write hits
system.cpu02.dtb.write_misses                       0                       # DTB write misses
system.cpu02.idle_fraction                   0.979445                       # Percentage of idle cycles
system.cpu02.itb.accesses                           0                       # DTB accesses
system.cpu02.itb.hits                               0                       # DTB hits
system.cpu02.itb.misses                             0                       # DTB misses
system.cpu02.itb.pwrStateResidencyTicks::UNDEFINED    527294000                       # Cumulative time (in ticks) in various power states
system.cpu02.itb.read_accesses                      0                       # DTB read accesses
system.cpu02.itb.read_hits                          0                       # DTB read hits
system.cpu02.itb.read_misses                        0                       # DTB read misses
system.cpu02.itb.write_accesses                     0                       # DTB write accesses
system.cpu02.itb.write_hits                         0                       # DTB write hits
system.cpu02.itb.write_misses                       0                       # DTB write misses
system.cpu02.not_idle_fraction               0.020555                       # Percentage of non-idle cycles
system.cpu02.numCycles                        1054550                       # number of cpu cycles simulated
system.cpu02.numPwrStateTransitions                 2                       # Number of power state transitions
system.cpu02.numWorkItemsCompleted                  0                       # number of work items this cpu completed
system.cpu02.numWorkItemsStarted                    0                       # number of work items this cpu started
system.cpu02.num_busy_cycles             21676.220871                       # Number of busy cycles
system.cpu02.num_conditional_control_insts          170                       # number of instructions that are conditional controls
system.cpu02.num_fp_alu_accesses                   12                       # Number of float alu accesses
system.cpu02.num_fp_insts                          12                       # number of float instructions
system.cpu02.num_fp_register_reads                 12                       # number of times the floating registers were read
system.cpu02.num_fp_register_writes                 0                       # number of times the floating registers were written
system.cpu02.num_func_calls                       154                       # number of times a function call or return occured
system.cpu02.num_idle_cycles             1032873.779129                       # Number of idle cycles
system.cpu02.num_int_alu_accesses                1660                       # Number of integer alu accesses
system.cpu02.num_int_insts                       1660                       # number of integer instructions
system.cpu02.num_int_register_reads              1926                       # number of times the integer registers were read
system.cpu02.num_int_register_writes             1192                       # number of times the integer registers were written
system.cpu02.num_load_insts                       393                       # Number of load instructions
system.cpu02.num_mem_refs                         633                       # number of memory refs
system.cpu02.num_store_insts                      240                       # Number of store instructions
system.cpu02.num_vec_alu_accesses                   0                       # Number of vector alu accesses
system.cpu02.num_vec_insts                          0                       # number of vector instructions
system.cpu02.num_vec_register_reads                 0                       # number of times the vector registers were read
system.cpu02.num_vec_register_writes                0                       # number of times the vector registers were written
system.cpu02.op_class::No_OpClass                  10      0.59%      0.59% # Class of executed instruction
system.cpu02.op_class::IntAlu                    1049     61.89%     62.48% # Class of executed instruction
system.cpu02.op_class::IntMult                      1      0.06%     62.54% # Class of executed instruction
system.cpu02.op_class::IntDiv                       2      0.12%     62.65% # Class of executed instruction
system.cpu02.op_class::FloatAdd                     0      0.00%     62.65% # Class of executed instruction
system.cpu02.op_class::FloatCmp                     0      0.00%     62.65% # Class of executed instruction
system.cpu02.op_class::FloatCvt                     0      0.00%     62.65% # Class of executed instruction
system.cpu02.op_class::FloatMult                    0      0.00%     62.65% # Class of executed instruction
system.cpu02.op_class::FloatMultAcc                 0      0.00%     62.65% # Class of executed instruction
system.cpu02.op_class::FloatDiv                     0      0.00%     62.65% # Class of executed instruction
system.cpu02.op_class::FloatMisc                    0      0.00%     62.65% # Class of executed instruction
system.cpu02.op_class::FloatSqrt                    0      0.00%     62.65% # Class of executed instruction
system.cpu02.op_class::SimdAdd                      0      0.00%     62.65% # Class of executed instruction
system.cpu02.op_class::SimdAddAcc                   0      0.00%     62.65% # Class of executed instruction
system.cpu02.op_class::SimdAlu                      0      0.00%     62.65% # Class of executed instruction
system.cpu02.op_class::SimdCmp                      0      0.00%     62.65% # Class of executed instruction
system.cpu02.op_class::SimdCvt                      0      0.00%     62.65% # Class of executed instruction
system.cpu02.op_class::SimdMisc                     0      0.00%     62.65% # Class of executed instruction
system.cpu02.op_class::SimdMult                     0      0.00%     62.65% # Class of executed instruction
system.cpu02.op_class::SimdMultAcc                  0      0.00%     62.65% # Class of executed instruction
system.cpu02.op_class::SimdShift                    0      0.00%     62.65% # Class of executed instruction
system.cpu02.op_class::SimdShiftAcc                 0      0.00%     62.65% # Class of executed instruction
system.cpu02.op_class::SimdSqrt                     0      0.00%     62.65% # Class of executed instruction
system.cpu02.op_class::SimdFloatAdd                 0      0.00%     62.65% # Class of executed instruction
system.cpu02.op_class::SimdFloatAlu                 0      0.00%     62.65% # Class of executed instruction
system.cpu02.op_class::SimdFloatCmp                 0      0.00%     62.65% # Class of executed instruction
system.cpu02.op_class::SimdFloatCvt                 0      0.00%     62.65% # Class of executed instruction
system.cpu02.op_class::SimdFloatDiv                 0      0.00%     62.65% # Class of executed instruction
system.cpu02.op_class::SimdFloatMisc                0      0.00%     62.65% # Class of executed instruction
system.cpu02.op_class::SimdFloatMult                0      0.00%     62.65% # Class of executed instruction
system.cpu02.op_class::SimdFloatMultAcc             0      0.00%     62.65% # Class of executed instruction
system.cpu02.op_class::SimdFloatSqrt                0      0.00%     62.65% # Class of executed instruction
system.cpu02.op_class::SimdAes                      0      0.00%     62.65% # Class of executed instruction
system.cpu02.op_class::SimdAesMix                   0      0.00%     62.65% # Class of executed instruction
system.cpu02.op_class::SimdSha1Hash                 0      0.00%     62.65% # Class of executed instruction
system.cpu02.op_class::SimdSha1Hash2                0      0.00%     62.65% # Class of executed instruction
system.cpu02.op_class::SimdSha256Hash               0      0.00%     62.65% # Class of executed instruction
system.cpu02.op_class::SimdSha256Hash2              0      0.00%     62.65% # Class of executed instruction
system.cpu02.op_class::SimdShaSigma2                0      0.00%     62.65% # Class of executed instruction
system.cpu02.op_class::SimdShaSigma3                0      0.00%     62.65% # Class of executed instruction
system.cpu02.op_class::MemRead                    397     23.42%     86.08% # Class of executed instruction
system.cpu02.op_class::MemWrite                   224     13.22%     99.29% # Class of executed instruction
system.cpu02.op_class::FloatMemRead                 0      0.00%     99.29% # Class of executed instruction
system.cpu02.op_class::FloatMemWrite               12      0.71%    100.00% # Class of executed instruction
system.cpu02.op_class::IprAccess                    0      0.00%    100.00% # Class of executed instruction
system.cpu02.op_class::InstPrefetch                 0      0.00%    100.00% # Class of executed instruction
system.cpu02.op_class::total                     1695                       # Class of executed instruction
system.cpu02.pwrStateClkGateDist::samples            1                       # Distribution of time spent in the clock gated state
system.cpu02.pwrStateClkGateDist::mean      108981000                       # Distribution of time spent in the clock gated state
system.cpu02.pwrStateClkGateDist::1000-5e+10            1    100.00%    100.00% # Distribution of time spent in the clock gated state
system.cpu02.pwrStateClkGateDist::min_value    108981000                       # Distribution of time spent in the clock gated state
system.cpu02.pwrStateClkGateDist::max_value    108981000                       # Distribution of time spent in the clock gated state
system.cpu02.pwrStateClkGateDist::total             1                       # Distribution of time spent in the clock gated state
system.cpu02.pwrStateResidencyTicks::ON     418313000                       # Cumulative time (in ticks) in various power states
system.cpu02.pwrStateResidencyTicks::CLK_GATED    108981000                       # Cumulative time (in ticks) in various power states
system.cpu03.Branches                             310                       # Number of branches fetched
system.cpu03.committedInsts                      1599                       # Number of instructions committed
system.cpu03.committedOps                        1605                       # Number of ops (including micro ops) committed
system.cpu03.dtb.accesses                           0                       # DTB accesses
system.cpu03.dtb.hits                               0                       # DTB hits
system.cpu03.dtb.misses                             0                       # DTB misses
system.cpu03.dtb.pwrStateResidencyTicks::UNDEFINED    527294000                       # Cumulative time (in ticks) in various power states
system.cpu03.dtb.read_accesses                      0                       # DTB read accesses
system.cpu03.dtb.read_hits                          0                       # DTB read hits
system.cpu03.dtb.read_misses                        0                       # DTB read misses
system.cpu03.dtb.write_accesses                     0                       # DTB write accesses
system.cpu03.dtb.write_hits                         0                       # DTB write hits
system.cpu03.dtb.write_misses                       0                       # DTB write misses
system.cpu03.idle_fraction                   0.978467                       # Percentage of idle cycles
system.cpu03.itb.accesses                           0                       # DTB accesses
system.cpu03.itb.hits                               0                       # DTB hits
system.cpu03.itb.misses                             0                       # DTB misses
system.cpu03.itb.pwrStateResidencyTicks::UNDEFINED    527294000                       # Cumulative time (in ticks) in various power states
system.cpu03.itb.read_accesses                      0                       # DTB read accesses
system.cpu03.itb.read_hits                          0                       # DTB read hits
system.cpu03.itb.read_misses                        0                       # DTB read misses
system.cpu03.itb.write_accesses                     0                       # DTB write accesses
system.cpu03.itb.write_hits                         0                       # DTB write hits
system.cpu03.itb.write_misses                       0                       # DTB write misses
system.cpu03.not_idle_fraction               0.021533                       # Percentage of non-idle cycles
system.cpu03.numCycles                        1054509                       # number of cpu cycles simulated
system.cpu03.numPwrStateTransitions                 2                       # Number of power state transitions
system.cpu03.numWorkItemsCompleted                  0                       # number of work items this cpu completed
system.cpu03.numWorkItemsStarted                    0                       # number of work items this cpu started
system.cpu03.num_busy_cycles             22706.300883                       # Number of busy cycles
system.cpu03.num_conditional_control_insts          158                       # number of instructions that are conditional controls
system.cpu03.num_fp_alu_accesses                   12                       # Number of float alu accesses
system.cpu03.num_fp_insts                          12                       # number of float instructions
system.cpu03.num_fp_register_reads                 12                       # number of times the floating registers were read
system.cpu03.num_fp_register_writes                 0                       # number of times the floating registers were written
system.cpu03.num_func_calls                       152                       # number of times a function call or return occured
system.cpu03.num_idle_cycles             1031802.699117                       # Number of idle cycles
system.cpu03.num_int_alu_accesses                1568                       # Number of integer alu accesses
system.cpu03.num_int_insts                       1568                       # number of integer instructions
system.cpu03.num_int_register_reads              1822                       # number of times the integer registers were read
system.cpu03.num_int_register_writes             1124                       # number of times the integer registers were written
system.cpu03.num_load_insts                       371                       # Number of load instructions
system.cpu03.num_mem_refs                         601                       # number of memory refs
system.cpu03.num_store_insts                      230                       # Number of store instructions
system.cpu03.num_vec_alu_accesses                   0                       # Number of vector alu accesses
system.cpu03.num_vec_insts                          0                       # number of vector instructions
system.cpu03.num_vec_register_reads                 0                       # number of times the vector registers were read
system.cpu03.num_vec_register_writes                0                       # number of times the vector registers were written
system.cpu03.op_class::No_OpClass                  10      0.62%      0.62% # Class of executed instruction
system.cpu03.op_class::IntAlu                     993     61.79%     62.41% # Class of executed instruction
system.cpu03.op_class::IntMult                      1      0.06%     62.48% # Class of executed instruction
system.cpu03.op_class::IntDiv                       2      0.12%     62.60% # Class of executed instruction
system.cpu03.op_class::FloatAdd                     0      0.00%     62.60% # Class of executed instruction
system.cpu03.op_class::FloatCmp                     0      0.00%     62.60% # Class of executed instruction
system.cpu03.op_class::FloatCvt                     0      0.00%     62.60% # Class of executed instruction
system.cpu03.op_class::FloatMult                    0      0.00%     62.60% # Class of executed instruction
system.cpu03.op_class::FloatMultAcc                 0      0.00%     62.60% # Class of executed instruction
system.cpu03.op_class::FloatDiv                     0      0.00%     62.60% # Class of executed instruction
system.cpu03.op_class::FloatMisc                    0      0.00%     62.60% # Class of executed instruction
system.cpu03.op_class::FloatSqrt                    0      0.00%     62.60% # Class of executed instruction
system.cpu03.op_class::SimdAdd                      0      0.00%     62.60% # Class of executed instruction
system.cpu03.op_class::SimdAddAcc                   0      0.00%     62.60% # Class of executed instruction
system.cpu03.op_class::SimdAlu                      0      0.00%     62.60% # Class of executed instruction
system.cpu03.op_class::SimdCmp                      0      0.00%     62.60% # Class of executed instruction
system.cpu03.op_class::SimdCvt                      0      0.00%     62.60% # Class of executed instruction
system.cpu03.op_class::SimdMisc                     0      0.00%     62.60% # Class of executed instruction
system.cpu03.op_class::SimdMult                     0      0.00%     62.60% # Class of executed instruction
system.cpu03.op_class::SimdMultAcc                  0      0.00%     62.60% # Class of executed instruction
system.cpu03.op_class::SimdShift                    0      0.00%     62.60% # Class of executed instruction
system.cpu03.op_class::SimdShiftAcc                 0      0.00%     62.60% # Class of executed instruction
system.cpu03.op_class::SimdSqrt                     0      0.00%     62.60% # Class of executed instruction
system.cpu03.op_class::SimdFloatAdd                 0      0.00%     62.60% # Class of executed instruction
system.cpu03.op_class::SimdFloatAlu                 0      0.00%     62.60% # Class of executed instruction
system.cpu03.op_class::SimdFloatCmp                 0      0.00%     62.60% # Class of executed instruction
system.cpu03.op_class::SimdFloatCvt                 0      0.00%     62.60% # Class of executed instruction
system.cpu03.op_class::SimdFloatDiv                 0      0.00%     62.60% # Class of executed instruction
system.cpu03.op_class::SimdFloatMisc                0      0.00%     62.60% # Class of executed instruction
system.cpu03.op_class::SimdFloatMult                0      0.00%     62.60% # Class of executed instruction
system.cpu03.op_class::SimdFloatMultAcc             0      0.00%     62.60% # Class of executed instruction
system.cpu03.op_class::SimdFloatSqrt                0      0.00%     62.60% # Class of executed instruction
system.cpu03.op_class::SimdAes                      0      0.00%     62.60% # Class of executed instruction
system.cpu03.op_class::SimdAesMix                   0      0.00%     62.60% # Class of executed instruction
system.cpu03.op_class::SimdSha1Hash                 0      0.00%     62.60% # Class of executed instruction
system.cpu03.op_class::SimdSha1Hash2                0      0.00%     62.60% # Class of executed instruction
system.cpu03.op_class::SimdSha256Hash               0      0.00%     62.60% # Class of executed instruction
system.cpu03.op_class::SimdSha256Hash2              0      0.00%     62.60% # Class of executed instruction
system.cpu03.op_class::SimdShaSigma2                0      0.00%     62.60% # Class of executed instruction
system.cpu03.op_class::SimdShaSigma3                0      0.00%     62.60% # Class of executed instruction
system.cpu03.op_class::MemRead                    375     23.34%     85.94% # Class of executed instruction
system.cpu03.op_class::MemWrite                   214     13.32%     99.25% # Class of executed instruction
system.cpu03.op_class::FloatMemRead                 0      0.00%     99.25% # Class of executed instruction
system.cpu03.op_class::FloatMemWrite               12      0.75%    100.00% # Class of executed instruction
system.cpu03.op_class::IprAccess                    0      0.00%    100.00% # Class of executed instruction
system.cpu03.op_class::InstPrefetch                 0      0.00%    100.00% # Class of executed instruction
system.cpu03.op_class::total                     1607                       # Class of executed instruction
system.cpu03.pwrStateClkGateDist::samples            1                       # Distribution of time spent in the clock gated state
system.cpu03.pwrStateClkGateDist::mean       99836500                       # Distribution of time spent in the clock gated state
system.cpu03.pwrStateClkGateDist::1000-5e+10            1    100.00%    100.00% # Distribution of time spent in the clock gated state
system.cpu03.pwrStateClkGateDist::min_value     99836500                       # Distribution of time spent in the clock gated state
system.cpu03.pwrStateClkGateDist::max_value     99836500                       # Distribution of time spent in the clock gated state
system.cpu03.pwrStateClkGateDist::total             1                       # Distribution of time spent in the clock gated state
system.cpu03.pwrStateResidencyTicks::ON     427457500                       # Cumulative time (in ticks) in various power states
system.cpu03.pwrStateResidencyTicks::CLK_GATED     99836500                       # Cumulative time (in ticks) in various power states
system.cpu04.Branches                             279                       # Number of branches fetched
system.cpu04.committedInsts                      1440                       # Number of instructions committed
system.cpu04.committedOps                        1446                       # Number of ops (including micro ops) committed
system.cpu04.dtb.accesses                           0                       # DTB accesses
system.cpu04.dtb.hits                               0                       # DTB hits
system.cpu04.dtb.misses                             0                       # DTB misses
system.cpu04.dtb.pwrStateResidencyTicks::UNDEFINED    527294000                       # Cumulative time (in ticks) in various power states
system.cpu04.dtb.read_accesses                      0                       # DTB read accesses
system.cpu04.dtb.read_hits                          0                       # DTB read hits
system.cpu04.dtb.read_misses                        0                       # DTB read misses
system.cpu04.dtb.write_accesses                     0                       # DTB write accesses
system.cpu04.dtb.write_hits                         0                       # DTB write hits
system.cpu04.dtb.write_misses                       0                       # DTB write misses
system.cpu04.idle_fraction                   0.977718                       # Percentage of idle cycles
system.cpu04.itb.accesses                           0                       # DTB accesses
system.cpu04.itb.hits                               0                       # DTB hits
system.cpu04.itb.misses                             0                       # DTB misses
system.cpu04.itb.pwrStateResidencyTicks::UNDEFINED    527294000                       # Cumulative time (in ticks) in various power states
system.cpu04.itb.read_accesses                      0                       # DTB read accesses
system.cpu04.itb.read_hits                          0                       # DTB read hits
system.cpu04.itb.read_misses                        0                       # DTB read misses
system.cpu04.itb.write_accesses                     0                       # DTB write accesses
system.cpu04.itb.write_hits                         0                       # DTB write hits
system.cpu04.itb.write_misses                       0                       # DTB write misses
system.cpu04.not_idle_fraction               0.022282                       # Percentage of non-idle cycles
system.cpu04.numCycles                        1054495                       # number of cpu cycles simulated
system.cpu04.numPwrStateTransitions                 2                       # Number of power state transitions
system.cpu04.numWorkItemsCompleted                  0                       # number of work items this cpu completed
system.cpu04.numWorkItemsStarted                    0                       # number of work items this cpu started
system.cpu04.num_busy_cycles             23495.929758                       # Number of busy cycles
system.cpu04.num_conditional_control_insts          144                       # number of instructions that are conditional controls
system.cpu04.num_fp_alu_accesses                   12                       # Number of float alu accesses
system.cpu04.num_fp_insts                          12                       # number of float instructions
system.cpu04.num_fp_register_reads                 12                       # number of times the floating registers were read
system.cpu04.num_fp_register_writes                 0                       # number of times the floating registers were written
system.cpu04.num_func_calls                       135                       # number of times a function call or return occured
system.cpu04.num_idle_cycles             1030999.070242                       # Number of idle cycles
system.cpu04.num_int_alu_accesses                1414                       # Number of integer alu accesses
system.cpu04.num_int_insts                       1414                       # number of integer instructions
system.cpu04.num_int_register_reads              1647                       # number of times the integer registers were read
system.cpu04.num_int_register_writes             1008                       # number of times the integer registers were written
system.cpu04.num_load_insts                       334                       # Number of load instructions
system.cpu04.num_mem_refs                         548                       # number of memory refs
system.cpu04.num_store_insts                      214                       # Number of store instructions
system.cpu04.num_vec_alu_accesses                   0                       # Number of vector alu accesses
system.cpu04.num_vec_insts                          0                       # number of vector instructions
system.cpu04.num_vec_register_reads                 0                       # number of times the vector registers were read
system.cpu04.num_vec_register_writes                0                       # number of times the vector registers were written
system.cpu04.op_class::No_OpClass                  10      0.69%      0.69% # Class of executed instruction
system.cpu04.op_class::IntAlu                     887     61.26%     61.95% # Class of executed instruction
system.cpu04.op_class::IntMult                      1      0.07%     62.02% # Class of executed instruction
system.cpu04.op_class::IntDiv                       2      0.14%     62.15% # Class of executed instruction
system.cpu04.op_class::FloatAdd                     0      0.00%     62.15% # Class of executed instruction
system.cpu04.op_class::FloatCmp                     0      0.00%     62.15% # Class of executed instruction
system.cpu04.op_class::FloatCvt                     0      0.00%     62.15% # Class of executed instruction
system.cpu04.op_class::FloatMult                    0      0.00%     62.15% # Class of executed instruction
system.cpu04.op_class::FloatMultAcc                 0      0.00%     62.15% # Class of executed instruction
system.cpu04.op_class::FloatDiv                     0      0.00%     62.15% # Class of executed instruction
system.cpu04.op_class::FloatMisc                    0      0.00%     62.15% # Class of executed instruction
system.cpu04.op_class::FloatSqrt                    0      0.00%     62.15% # Class of executed instruction
system.cpu04.op_class::SimdAdd                      0      0.00%     62.15% # Class of executed instruction
system.cpu04.op_class::SimdAddAcc                   0      0.00%     62.15% # Class of executed instruction
system.cpu04.op_class::SimdAlu                      0      0.00%     62.15% # Class of executed instruction
system.cpu04.op_class::SimdCmp                      0      0.00%     62.15% # Class of executed instruction
system.cpu04.op_class::SimdCvt                      0      0.00%     62.15% # Class of executed instruction
system.cpu04.op_class::SimdMisc                     0      0.00%     62.15% # Class of executed instruction
system.cpu04.op_class::SimdMult                     0      0.00%     62.15% # Class of executed instruction
system.cpu04.op_class::SimdMultAcc                  0      0.00%     62.15% # Class of executed instruction
system.cpu04.op_class::SimdShift                    0      0.00%     62.15% # Class of executed instruction
system.cpu04.op_class::SimdShiftAcc                 0      0.00%     62.15% # Class of executed instruction
system.cpu04.op_class::SimdSqrt                     0      0.00%     62.15% # Class of executed instruction
system.cpu04.op_class::SimdFloatAdd                 0      0.00%     62.15% # Class of executed instruction
system.cpu04.op_class::SimdFloatAlu                 0      0.00%     62.15% # Class of executed instruction
system.cpu04.op_class::SimdFloatCmp                 0      0.00%     62.15% # Class of executed instruction
system.cpu04.op_class::SimdFloatCvt                 0      0.00%     62.15% # Class of executed instruction
system.cpu04.op_class::SimdFloatDiv                 0      0.00%     62.15% # Class of executed instruction
system.cpu04.op_class::SimdFloatMisc                0      0.00%     62.15% # Class of executed instruction
system.cpu04.op_class::SimdFloatMult                0      0.00%     62.15% # Class of executed instruction
system.cpu04.op_class::SimdFloatMultAcc             0      0.00%     62.15% # Class of executed instruction
system.cpu04.op_class::SimdFloatSqrt                0      0.00%     62.15% # Class of executed instruction
system.cpu04.op_class::SimdAes                      0      0.00%     62.15% # Class of executed instruction
system.cpu04.op_class::SimdAesMix                   0      0.00%     62.15% # Class of executed instruction
system.cpu04.op_class::SimdSha1Hash                 0      0.00%     62.15% # Class of executed instruction
system.cpu04.op_class::SimdSha1Hash2                0      0.00%     62.15% # Class of executed instruction
system.cpu04.op_class::SimdSha256Hash               0      0.00%     62.15% # Class of executed instruction
system.cpu04.op_class::SimdSha256Hash2              0      0.00%     62.15% # Class of executed instruction
system.cpu04.op_class::SimdShaSigma2                0      0.00%     62.15% # Class of executed instruction
system.cpu04.op_class::SimdShaSigma3                0      0.00%     62.15% # Class of executed instruction
system.cpu04.op_class::MemRead                    338     23.34%     85.50% # Class of executed instruction
system.cpu04.op_class::MemWrite                   198     13.67%     99.17% # Class of executed instruction
system.cpu04.op_class::FloatMemRead                 0      0.00%     99.17% # Class of executed instruction
system.cpu04.op_class::FloatMemWrite               12      0.83%    100.00% # Class of executed instruction
system.cpu04.op_class::IprAccess                    0      0.00%    100.00% # Class of executed instruction
system.cpu04.op_class::InstPrefetch                 0      0.00%    100.00% # Class of executed instruction
system.cpu04.op_class::total                     1448                       # Class of executed instruction
system.cpu04.pwrStateClkGateDist::samples            1                       # Distribution of time spent in the clock gated state
system.cpu04.pwrStateClkGateDist::mean       91457500                       # Distribution of time spent in the clock gated state
system.cpu04.pwrStateClkGateDist::1000-5e+10            1    100.00%    100.00% # Distribution of time spent in the clock gated state
system.cpu04.pwrStateClkGateDist::min_value     91457500                       # Distribution of time spent in the clock gated state
system.cpu04.pwrStateClkGateDist::max_value     91457500                       # Distribution of time spent in the clock gated state
system.cpu04.pwrStateClkGateDist::total             1                       # Distribution of time spent in the clock gated state
system.cpu04.pwrStateResidencyTicks::ON     435836500                       # Cumulative time (in ticks) in various power states
system.cpu04.pwrStateResidencyTicks::CLK_GATED     91457500                       # Cumulative time (in ticks) in various power states
system.cpu05.Branches                             330                       # Number of branches fetched
system.cpu05.committedInsts                      1716                       # Number of instructions committed
system.cpu05.committedOps                        1722                       # Number of ops (including micro ops) committed
system.cpu05.dtb.accesses                           0                       # DTB accesses
system.cpu05.dtb.hits                               0                       # DTB hits
system.cpu05.dtb.misses                             0                       # DTB misses
system.cpu05.dtb.pwrStateResidencyTicks::UNDEFINED    527294000                       # Cumulative time (in ticks) in various power states
system.cpu05.dtb.read_accesses                      0                       # DTB read accesses
system.cpu05.dtb.read_hits                          0                       # DTB read hits
system.cpu05.dtb.read_misses                        0                       # DTB read misses
system.cpu05.dtb.write_accesses                     0                       # DTB write accesses
system.cpu05.dtb.write_hits                         0                       # DTB write hits
system.cpu05.dtb.write_misses                       0                       # DTB write misses
system.cpu05.idle_fraction                   0.978828                       # Percentage of idle cycles
system.cpu05.itb.accesses                           0                       # DTB accesses
system.cpu05.itb.hits                               0                       # DTB hits
system.cpu05.itb.misses                             0                       # DTB misses
system.cpu05.itb.pwrStateResidencyTicks::UNDEFINED    527294000                       # Cumulative time (in ticks) in various power states
system.cpu05.itb.read_accesses                      0                       # DTB read accesses
system.cpu05.itb.read_hits                          0                       # DTB read hits
system.cpu05.itb.read_misses                        0                       # DTB read misses
system.cpu05.itb.write_accesses                     0                       # DTB write accesses
system.cpu05.itb.write_hits                         0                       # DTB write hits
system.cpu05.itb.write_misses                       0                       # DTB write misses
system.cpu05.not_idle_fraction               0.021172                       # Percentage of non-idle cycles
system.cpu05.numCycles                        1054527                       # number of cpu cycles simulated
system.cpu05.numPwrStateTransitions                 2                       # Number of power state transitions
system.cpu05.numWorkItemsCompleted                  0                       # number of work items this cpu completed
system.cpu05.numWorkItemsStarted                    0                       # number of work items this cpu started
system.cpu05.num_busy_cycles             22326.710450                       # Number of busy cycles
system.cpu05.num_conditional_control_insts          171                       # number of instructions that are conditional controls
system.cpu05.num_fp_alu_accesses                   12                       # Number of float alu accesses
system.cpu05.num_fp_insts                          12                       # number of float instructions
system.cpu05.num_fp_register_reads                 12                       # number of times the floating registers were read
system.cpu05.num_fp_register_writes                 0                       # number of times the floating registers were written
system.cpu05.num_func_calls                       159                       # number of times a function call or return occured
system.cpu05.num_idle_cycles             1032200.289550                       # Number of idle cycles
system.cpu05.num_int_alu_accesses                1686                       # Number of integer alu accesses
system.cpu05.num_int_insts                       1686                       # number of integer instructions
system.cpu05.num_int_register_reads              1959                       # number of times the integer registers were read
system.cpu05.num_int_register_writes             1213                       # number of times the integer registers were written
system.cpu05.num_load_insts                       403                       # Number of load instructions
system.cpu05.num_mem_refs                         646                       # number of memory refs
system.cpu05.num_store_insts                      243                       # Number of store instructions
system.cpu05.num_vec_alu_accesses                   0                       # Number of vector alu accesses
system.cpu05.num_vec_insts                          0                       # number of vector instructions
system.cpu05.num_vec_register_reads                 0                       # number of times the vector registers were read
system.cpu05.num_vec_register_writes                0                       # number of times the vector registers were written
system.cpu05.op_class::No_OpClass                  10      0.58%      0.58% # Class of executed instruction
system.cpu05.op_class::IntAlu                    1065     61.77%     62.35% # Class of executed instruction
system.cpu05.op_class::IntMult                      1      0.06%     62.41% # Class of executed instruction
system.cpu05.op_class::IntDiv                       2      0.12%     62.53% # Class of executed instruction
system.cpu05.op_class::FloatAdd                     0      0.00%     62.53% # Class of executed instruction
system.cpu05.op_class::FloatCmp                     0      0.00%     62.53% # Class of executed instruction
system.cpu05.op_class::FloatCvt                     0      0.00%     62.53% # Class of executed instruction
system.cpu05.op_class::FloatMult                    0      0.00%     62.53% # Class of executed instruction
system.cpu05.op_class::FloatMultAcc                 0      0.00%     62.53% # Class of executed instruction
system.cpu05.op_class::FloatDiv                     0      0.00%     62.53% # Class of executed instruction
system.cpu05.op_class::FloatMisc                    0      0.00%     62.53% # Class of executed instruction
system.cpu05.op_class::FloatSqrt                    0      0.00%     62.53% # Class of executed instruction
system.cpu05.op_class::SimdAdd                      0      0.00%     62.53% # Class of executed instruction
system.cpu05.op_class::SimdAddAcc                   0      0.00%     62.53% # Class of executed instruction
system.cpu05.op_class::SimdAlu                      0      0.00%     62.53% # Class of executed instruction
system.cpu05.op_class::SimdCmp                      0      0.00%     62.53% # Class of executed instruction
system.cpu05.op_class::SimdCvt                      0      0.00%     62.53% # Class of executed instruction
system.cpu05.op_class::SimdMisc                     0      0.00%     62.53% # Class of executed instruction
system.cpu05.op_class::SimdMult                     0      0.00%     62.53% # Class of executed instruction
system.cpu05.op_class::SimdMultAcc                  0      0.00%     62.53% # Class of executed instruction
system.cpu05.op_class::SimdShift                    0      0.00%     62.53% # Class of executed instruction
system.cpu05.op_class::SimdShiftAcc                 0      0.00%     62.53% # Class of executed instruction
system.cpu05.op_class::SimdSqrt                     0      0.00%     62.53% # Class of executed instruction
system.cpu05.op_class::SimdFloatAdd                 0      0.00%     62.53% # Class of executed instruction
system.cpu05.op_class::SimdFloatAlu                 0      0.00%     62.53% # Class of executed instruction
system.cpu05.op_class::SimdFloatCmp                 0      0.00%     62.53% # Class of executed instruction
system.cpu05.op_class::SimdFloatCvt                 0      0.00%     62.53% # Class of executed instruction
system.cpu05.op_class::SimdFloatDiv                 0      0.00%     62.53% # Class of executed instruction
system.cpu05.op_class::SimdFloatMisc                0      0.00%     62.53% # Class of executed instruction
system.cpu05.op_class::SimdFloatMult                0      0.00%     62.53% # Class of executed instruction
system.cpu05.op_class::SimdFloatMultAcc             0      0.00%     62.53% # Class of executed instruction
system.cpu05.op_class::SimdFloatSqrt                0      0.00%     62.53% # Class of executed instruction
system.cpu05.op_class::SimdAes                      0      0.00%     62.53% # Class of executed instruction
system.cpu05.op_class::SimdAesMix                   0      0.00%     62.53% # Class of executed instruction
system.cpu05.op_class::SimdSha1Hash                 0      0.00%     62.53% # Class of executed instruction
system.cpu05.op_class::SimdSha1Hash2                0      0.00%     62.53% # Class of executed instruction
system.cpu05.op_class::SimdSha256Hash               0      0.00%     62.53% # Class of executed instruction
system.cpu05.op_class::SimdSha256Hash2              0      0.00%     62.53% # Class of executed instruction
system.cpu05.op_class::SimdShaSigma2                0      0.00%     62.53% # Class of executed instruction
system.cpu05.op_class::SimdShaSigma3                0      0.00%     62.53% # Class of executed instruction
system.cpu05.op_class::MemRead                    407     23.61%     86.14% # Class of executed instruction
system.cpu05.op_class::MemWrite                   227     13.17%     99.30% # Class of executed instruction
system.cpu05.op_class::FloatMemRead                 0      0.00%     99.30% # Class of executed instruction
system.cpu05.op_class::FloatMemWrite               12      0.70%    100.00% # Class of executed instruction
system.cpu05.op_class::IprAccess                    0      0.00%    100.00% # Class of executed instruction
system.cpu05.op_class::InstPrefetch                 0      0.00%    100.00% # Class of executed instruction
system.cpu05.op_class::total                     1724                       # Class of executed instruction
system.cpu05.pwrStateClkGateDist::samples            1                       # Distribution of time spent in the clock gated state
system.cpu05.pwrStateClkGateDist::mean       83504000                       # Distribution of time spent in the clock gated state
system.cpu05.pwrStateClkGateDist::1000-5e+10            1    100.00%    100.00% # Distribution of time spent in the clock gated state
system.cpu05.pwrStateClkGateDist::min_value     83504000                       # Distribution of time spent in the clock gated state
system.cpu05.pwrStateClkGateDist::max_value     83504000                       # Distribution of time spent in the clock gated state
system.cpu05.pwrStateClkGateDist::total             1                       # Distribution of time spent in the clock gated state
system.cpu05.pwrStateResidencyTicks::ON     443790000                       # Cumulative time (in ticks) in various power states
system.cpu05.pwrStateResidencyTicks::CLK_GATED     83504000                       # Cumulative time (in ticks) in various power states
system.cpu06.Branches                             315                       # Number of branches fetched
system.cpu06.committedInsts                      1627                       # Number of instructions committed
system.cpu06.committedOps                        1633                       # Number of ops (including micro ops) committed
system.cpu06.dtb.accesses                           0                       # DTB accesses
system.cpu06.dtb.hits                               0                       # DTB hits
system.cpu06.dtb.misses                             0                       # DTB misses
system.cpu06.dtb.pwrStateResidencyTicks::UNDEFINED    527294000                       # Cumulative time (in ticks) in various power states
system.cpu06.dtb.read_accesses                      0                       # DTB read accesses
system.cpu06.dtb.read_hits                          0                       # DTB read hits
system.cpu06.dtb.read_misses                        0                       # DTB read misses
system.cpu06.dtb.write_accesses                     0                       # DTB write accesses
system.cpu06.dtb.write_hits                         0                       # DTB write hits
system.cpu06.dtb.write_misses                       0                       # DTB write misses
system.cpu06.idle_fraction                   0.978634                       # Percentage of idle cycles
system.cpu06.itb.accesses                           0                       # DTB accesses
system.cpu06.itb.hits                               0                       # DTB hits
system.cpu06.itb.misses                             0                       # DTB misses
system.cpu06.itb.pwrStateResidencyTicks::UNDEFINED    527294000                       # Cumulative time (in ticks) in various power states
system.cpu06.itb.read_accesses                      0                       # DTB read accesses
system.cpu06.itb.read_hits                          0                       # DTB read hits
system.cpu06.itb.read_misses                        0                       # DTB read misses
system.cpu06.itb.write_accesses                     0                       # DTB write accesses
system.cpu06.itb.write_hits                         0                       # DTB write hits
system.cpu06.itb.write_misses                       0                       # DTB write misses
system.cpu06.not_idle_fraction               0.021366                       # Percentage of non-idle cycles
system.cpu06.numCycles                        1054561                       # number of cpu cycles simulated
system.cpu06.numPwrStateTransitions                 2                       # Number of power state transitions
system.cpu06.numWorkItemsCompleted                  0                       # number of work items this cpu completed
system.cpu06.numWorkItemsStarted                    0                       # number of work items this cpu started
system.cpu06.num_busy_cycles             22531.425084                       # Number of busy cycles
system.cpu06.num_conditional_control_insts          161                       # number of instructions that are conditional controls
system.cpu06.num_fp_alu_accesses                   12                       # Number of float alu accesses
system.cpu06.num_fp_insts                          12                       # number of float instructions
system.cpu06.num_fp_register_reads                 12                       # number of times the floating registers were read
system.cpu06.num_fp_register_writes                 0                       # number of times the floating registers were written
system.cpu06.num_func_calls                       154                       # number of times a function call or return occured
system.cpu06.num_idle_cycles             1032029.574916                       # Number of idle cycles
system.cpu06.num_int_alu_accesses                1596                       # Number of integer alu accesses
system.cpu06.num_int_insts                       1596                       # number of integer instructions
system.cpu06.num_int_register_reads              1854                       # number of times the integer registers were read
system.cpu06.num_int_register_writes             1145                       # number of times the integer registers were written
system.cpu06.num_load_insts                       378                       # Number of load instructions
system.cpu06.num_mem_refs                         611                       # number of memory refs
system.cpu06.num_store_insts                      233                       # Number of store instructions
system.cpu06.num_vec_alu_accesses                   0                       # Number of vector alu accesses
system.cpu06.num_vec_insts                          0                       # number of vector instructions
system.cpu06.num_vec_register_reads                 0                       # number of times the vector registers were read
system.cpu06.num_vec_register_writes                0                       # number of times the vector registers were written
system.cpu06.op_class::No_OpClass                  10      0.61%      0.61% # Class of executed instruction
system.cpu06.op_class::IntAlu                    1011     61.83%     62.45% # Class of executed instruction
system.cpu06.op_class::IntMult                      1      0.06%     62.51% # Class of executed instruction
system.cpu06.op_class::IntDiv                       2      0.12%     62.63% # Class of executed instruction
system.cpu06.op_class::FloatAdd                     0      0.00%     62.63% # Class of executed instruction
system.cpu06.op_class::FloatCmp                     0      0.00%     62.63% # Class of executed instruction
system.cpu06.op_class::FloatCvt                     0      0.00%     62.63% # Class of executed instruction
system.cpu06.op_class::FloatMult                    0      0.00%     62.63% # Class of executed instruction
system.cpu06.op_class::FloatMultAcc                 0      0.00%     62.63% # Class of executed instruction
system.cpu06.op_class::FloatDiv                     0      0.00%     62.63% # Class of executed instruction
system.cpu06.op_class::FloatMisc                    0      0.00%     62.63% # Class of executed instruction
system.cpu06.op_class::FloatSqrt                    0      0.00%     62.63% # Class of executed instruction
system.cpu06.op_class::SimdAdd                      0      0.00%     62.63% # Class of executed instruction
system.cpu06.op_class::SimdAddAcc                   0      0.00%     62.63% # Class of executed instruction
system.cpu06.op_class::SimdAlu                      0      0.00%     62.63% # Class of executed instruction
system.cpu06.op_class::SimdCmp                      0      0.00%     62.63% # Class of executed instruction
system.cpu06.op_class::SimdCvt                      0      0.00%     62.63% # Class of executed instruction
system.cpu06.op_class::SimdMisc                     0      0.00%     62.63% # Class of executed instruction
system.cpu06.op_class::SimdMult                     0      0.00%     62.63% # Class of executed instruction
system.cpu06.op_class::SimdMultAcc                  0      0.00%     62.63% # Class of executed instruction
system.cpu06.op_class::SimdShift                    0      0.00%     62.63% # Class of executed instruction
system.cpu06.op_class::SimdShiftAcc                 0      0.00%     62.63% # Class of executed instruction
system.cpu06.op_class::SimdSqrt                     0      0.00%     62.63% # Class of executed instruction
system.cpu06.op_class::SimdFloatAdd                 0      0.00%     62.63% # Class of executed instruction
system.cpu06.op_class::SimdFloatAlu                 0      0.00%     62.63% # Class of executed instruction
system.cpu06.op_class::SimdFloatCmp                 0      0.00%     62.63% # Class of executed instruction
system.cpu06.op_class::SimdFloatCvt                 0      0.00%     62.63% # Class of executed instruction
system.cpu06.op_class::SimdFloatDiv                 0      0.00%     62.63% # Class of executed instruction
system.cpu06.op_class::SimdFloatMisc                0      0.00%     62.63% # Class of executed instruction
system.cpu06.op_class::SimdFloatMult                0      0.00%     62.63% # Class of executed instruction
system.cpu06.op_class::SimdFloatMultAcc             0      0.00%     62.63% # Class of executed instruction
system.cpu06.op_class::SimdFloatSqrt                0      0.00%     62.63% # Class of executed instruction
system.cpu06.op_class::SimdAes                      0      0.00%     62.63% # Class of executed instruction
system.cpu06.op_class::SimdAesMix                   0      0.00%     62.63% # Class of executed instruction
system.cpu06.op_class::SimdSha1Hash                 0      0.00%     62.63% # Class of executed instruction
system.cpu06.op_class::SimdSha1Hash2                0      0.00%     62.63% # Class of executed instruction
system.cpu06.op_class::SimdSha256Hash               0      0.00%     62.63% # Class of executed instruction
system.cpu06.op_class::SimdSha256Hash2              0      0.00%     62.63% # Class of executed instruction
system.cpu06.op_class::SimdShaSigma2                0      0.00%     62.63% # Class of executed instruction
system.cpu06.op_class::SimdShaSigma3                0      0.00%     62.63% # Class of executed instruction
system.cpu06.op_class::MemRead                    382     23.36%     85.99% # Class of executed instruction
system.cpu06.op_class::MemWrite                   217     13.27%     99.27% # Class of executed instruction
system.cpu06.op_class::FloatMemRead                 0      0.00%     99.27% # Class of executed instruction
system.cpu06.op_class::FloatMemWrite               12      0.73%    100.00% # Class of executed instruction
system.cpu06.op_class::IprAccess                    0      0.00%    100.00% # Class of executed instruction
system.cpu06.op_class::InstPrefetch                 0      0.00%    100.00% # Class of executed instruction
system.cpu06.op_class::total                     1635                       # Class of executed instruction
system.cpu06.pwrStateClkGateDist::samples            1                       # Distribution of time spent in the clock gated state
system.cpu06.pwrStateClkGateDist::mean       75089000                       # Distribution of time spent in the clock gated state
system.cpu06.pwrStateClkGateDist::1000-5e+10            1    100.00%    100.00% # Distribution of time spent in the clock gated state
system.cpu06.pwrStateClkGateDist::min_value     75089000                       # Distribution of time spent in the clock gated state
[...]
system.ruby.network.int_links39.credit_link.pwrStateResidencyTicks::UNDEFINED    527294000                       # Cumulative time (in ticks) in various power states
system.ruby.network.int_links39.network_link.pwrStateResidencyTicks::UNDEFINED    527294000                       # Cumulative time (in ticks) in various power states
system.ruby.network.int_links40.credit_link.pwrStateResidencyTicks::UNDEFINED    527294000                       # Cumulative time (in ticks) in various power states
system.ruby.network.int_links40.network_link.pwrStateResidencyTicks::UNDEFINED    527294000                       # Cumulative time (in ticks) in various power states
system.ruby.network.int_links41.credit_link.pwrStateResidencyTicks::UNDEFINED    527294000                       # Cumulative time (in ticks) in various power states
system.ruby.network.int_links41.network_link.pwrStateResidencyTicks::UNDEFINED    527294000                       # Cumulative time (in ticks) in various power states
system.ruby.network.int_links42.credit_link.pwrStateResidencyTicks::UNDEFINED    527294000                       # Cumulative time (in ticks) in various power states
system.ruby.network.int_links42.network_link.pwrStateResidencyTicks::UNDEFINED    527294000                       # Cumulative time (in ticks) in various power states
system.ruby.network.int_links43.credit_link.pwrStateResidencyTicks::UNDEFINED    527294000                       # Cumulative time (in ticks) in various power states
system.ruby.network.int_links43.network_link.pwrStateResidencyTicks::UNDEFINED    527294000                       # Cumulative time (in ticks) in various power states
system.ruby.network.int_links44.credit_link.pwrStateResidencyTicks::UNDEFINED    527294000                       # Cumulative time (in ticks) in various power states
system.ruby.network.int_links44.network_link.pwrStateResidencyTicks::UNDEFINED    527294000                       # Cumulative time (in ticks) in various power states
system.ruby.network.int_links45.credit_link.pwrStateResidencyTicks::UNDEFINED    527294000                       # Cumulative time (in ticks) in various power states
system.ruby.network.int_links45.network_link.pwrStateResidencyTicks::UNDEFINED    527294000                       # Cumulative time (in ticks) in various power states
system.ruby.network.int_links46.credit_link.pwrStateResidencyTicks::UNDEFINED    527294000                       # Cumulative time (in ticks) in various power states
system.ruby.network.int_links46.network_link.pwrStateResidencyTicks::UNDEFINED    527294000                       # Cumulative time (in ticks) in various power states
system.ruby.network.int_links47.credit_link.pwrStateResidencyTicks::UNDEFINED    527294000                       # Cumulative time (in ticks) in various power states
system.ruby.network.int_links47.network_link.pwrStateResidencyTicks::UNDEFINED    527294000                       # Cumulative time (in ticks) in various power states
system.ruby.network.netifs00.pwrStateResidencyTicks::UNDEFINED    527294000                       # Cumulative time (in ticks) in various power states
system.ruby.network.netifs01.pwrStateResidencyTicks::UNDEFINED    527294000                       # Cumulative time (in ticks) in various power states
system.ruby.network.netifs02.pwrStateResidencyTicks::UNDEFINED    527294000                       # Cumulative time (in ticks) in various power states
system.ruby.network.netifs03.pwrStateResidencyTicks::UNDEFINED    527294000                       # Cumulative time (in ticks) in various power states
system.ruby.network.netifs04.pwrStateResidencyTicks::UNDEFINED    527294000                       # Cumulative time (in ticks) in various power states
system.ruby.network.netifs05.pwrStateResidencyTicks::UNDEFINED    527294000                       # Cumulative time (in ticks) in various power states
system.ruby.network.netifs06.pwrStateResidencyTicks::UNDEFINED    527294000                       # Cumulative time (in ticks) in various power states
system.ruby.network.netifs07.pwrStateResidencyTicks::UNDEFINED    527294000                       # Cumulative time (in ticks) in various power states
system.ruby.network.netifs08.pwrStateResidencyTicks::UNDEFINED    527294000                       # Cumulative time (in ticks) in various power states
system.ruby.network.netifs09.pwrStateResidencyTicks::UNDEFINED    527294000                       # Cumulative time (in ticks) in various power states
system.ruby.network.netifs10.pwrStateResidencyTicks::UNDEFINED    527294000                       # Cumulative time (in ticks) in various power states
system.ruby.network.netifs11.pwrStateResidencyTicks::UNDEFINED    527294000                       # Cumulative time (in ticks) in various power states
system.ruby.network.netifs12.pwrStateResidencyTicks::UNDEFINED    527294000                       # Cumulative time (in ticks) in various power states
system.ruby.network.netifs13.pwrStateResidencyTicks::UNDEFINED    527294000                       # Cumulative time (in ticks) in various power states
system.ruby.network.netifs14.pwrStateResidencyTicks::UNDEFINED    527294000                       # Cumulative time (in ticks) in various power states
system.ruby.network.netifs15.pwrStateResidencyTicks::UNDEFINED    527294000                       # Cumulative time (in ticks) in various power states
system.ruby.network.netifs16.pwrStateResidencyTicks::UNDEFINED    527294000                       # Cumulative time (in ticks) in various power states
system.ruby.network.netifs17.pwrStateResidencyTicks::UNDEFINED    527294000                       # Cumulative time (in ticks) in various power states
system.ruby.network.netifs18.pwrStateResidencyTicks::UNDEFINED    527294000                       # Cumulative time (in ticks) in various power states
system.ruby.network.netifs19.pwrStateResidencyTicks::UNDEFINED    527294000                       # Cumulative time (in ticks) in various power states
system.ruby.network.netifs20.pwrStateResidencyTicks::UNDEFINED    527294000                       # Cumulative time (in ticks) in various power states
system.ruby.network.netifs21.pwrStateResidencyTicks::UNDEFINED    527294000                       # Cumulative time (in ticks) in various power states
system.ruby.network.netifs22.pwrStateResidencyTicks::UNDEFINED    527294000                       # Cumulative time (in ticks) in various power states
system.ruby.network.netifs23.pwrStateResidencyTicks::UNDEFINED    527294000                       # Cumulative time (in ticks) in various power states
system.ruby.network.netifs24.pwrStateResidencyTicks::UNDEFINED    527294000                       # Cumulative time (in ticks) in various power states
system.ruby.network.netifs25.pwrStateResidencyTicks::UNDEFINED    527294000                       # Cumulative time (in ticks) in various power states
system.ruby.network.netifs26.pwrStateResidencyTicks::UNDEFINED    527294000                       # Cumulative time (in ticks) in various power states
system.ruby.network.netifs27.pwrStateResidencyTicks::UNDEFINED    527294000                       # Cumulative time (in ticks) in various power states
system.ruby.network.netifs28.pwrStateResidencyTicks::UNDEFINED    527294000                       # Cumulative time (in ticks) in various power states
system.ruby.network.netifs29.pwrStateResidencyTicks::UNDEFINED    527294000                       # Cumulative time (in ticks) in various power states
system.ruby.network.netifs30.pwrStateResidencyTicks::UNDEFINED    527294000                       # Cumulative time (in ticks) in various power states
system.ruby.network.netifs31.pwrStateResidencyTicks::UNDEFINED    527294000                       # Cumulative time (in ticks) in various power states
system.ruby.network.netifs32.pwrStateResidencyTicks::UNDEFINED    527294000                       # Cumulative time (in ticks) in various power states
system.ruby.network.netifs33.pwrStateResidencyTicks::UNDEFINED    527294000                       # Cumulative time (in ticks) in various power states
system.ruby.network.netifs34.pwrStateResidencyTicks::UNDEFINED    527294000                       # Cumulative time (in ticks) in various power states
system.ruby.network.netifs35.pwrStateResidencyTicks::UNDEFINED    527294000                       # Cumulative time (in ticks) in various power states
system.ruby.network.packet_network_latency |      246925                       |      420674                       |       94375                      
system.ruby.network.packet_queueing_latency |       50076                       |       49440                       |       10773                      
system.ruby.network.packets_injected     |       22309     33.36%     33.36% |       34183     51.12%     84.48% |       10382     15.52%    100.00%
system.ruby.network.packets_injected::total        66874                      
system.ruby.network.packets_received     |       22307     33.36%     33.36% |       34177     51.11%     84.47% |       10381     15.53%    100.00%
system.ruby.network.packets_received::total        66865                      
system.ruby.network.pwrStateResidencyTicks::UNDEFINED    527294000                       # Cumulative time (in ticks) in various power states
system.ruby.network.routers00.buffer_reads       103945                      
system.ruby.network.routers00.buffer_writes       103945                      
system.ruby.network.routers00.crossbar_activity       103945                      
system.ruby.network.routers00.pwrStateResidencyTicks::UNDEFINED    527294000                       # Cumulative time (in ticks) in various power states
system.ruby.network.routers00.sw_input_arbiter_activity       104387                      
system.ruby.network.routers00.sw_output_arbiter_activity       103945                      
system.ruby.network.routers01.buffer_reads        49911                      
system.ruby.network.routers01.buffer_writes        49911                      
system.ruby.network.routers01.crossbar_activity        49911                      
system.ruby.network.routers01.pwrStateResidencyTicks::UNDEFINED    527294000                       # Cumulative time (in ticks) in various power states
system.ruby.network.routers01.sw_input_arbiter_activity        50031                      
system.ruby.network.routers01.sw_output_arbiter_activity        49911                      
system.ruby.network.routers02.buffer_reads        36349                      
system.ruby.network.routers02.buffer_writes        36349                      
system.ruby.network.routers02.crossbar_activity        36349                      
system.ruby.network.routers02.pwrStateResidencyTicks::UNDEFINED    527294000                       # Cumulative time (in ticks) in various power states
system.ruby.network.routers02.sw_input_arbiter_activity        36508                      
system.ruby.network.routers02.sw_output_arbiter_activity        36349                      
system.ruby.network.routers03.buffer_reads        28158                      
system.ruby.network.routers03.buffer_writes        28158                      
system.ruby.network.routers03.crossbar_activity        28158                      
system.ruby.network.routers03.pwrStateResidencyTicks::UNDEFINED    527294000                       # Cumulative time (in ticks) in various power states
system.ruby.network.routers03.sw_input_arbiter_activity        28355                      
system.ruby.network.routers03.sw_output_arbiter_activity        28158                      
system.ruby.network.routers04.buffer_reads        61382                      
system.ruby.network.routers04.buffer_writes        61382                      
system.ruby.network.routers04.crossbar_activity        61382                      
system.ruby.network.routers04.pwrStateResidencyTicks::UNDEFINED    527294000                       # Cumulative time (in ticks) in various power states
system.ruby.network.routers04.sw_input_arbiter_activity        62016                      
system.ruby.network.routers04.sw_output_arbiter_activity        61382                      
system.ruby.network.routers05.buffer_reads        25392                      
system.ruby.network.routers05.buffer_writes        25392                      
system.ruby.network.routers05.crossbar_activity        25392                      
system.ruby.network.routers05.pwrStateResidencyTicks::UNDEFINED    527294000                       # Cumulative time (in ticks) in various power states
system.ruby.network.routers05.sw_input_arbiter_activity        25445                      
system.ruby.network.routers05.sw_output_arbiter_activity        25392                      
system.ruby.network.routers06.buffer_reads        21671                      
system.ruby.network.routers06.buffer_writes        21671                      
system.ruby.network.routers06.crossbar_activity        21671                      
system.ruby.network.routers06.pwrStateResidencyTicks::UNDEFINED    527294000                       # Cumulative time (in ticks) in various power states
system.ruby.network.routers06.sw_input_arbiter_activity        21750                      
system.ruby.network.routers06.sw_output_arbiter_activity        21671                      
system.ruby.network.routers07.buffer_reads        20992                      
system.ruby.network.routers07.buffer_writes        20992                      
system.ruby.network.routers07.crossbar_activity        20992                      
system.ruby.network.routers07.pwrStateResidencyTicks::UNDEFINED    527294000                       # Cumulative time (in ticks) in various power states
system.ruby.network.routers07.sw_input_arbiter_activity        21284                      
system.ruby.network.routers07.sw_output_arbiter_activity        20992                      
system.ruby.network.routers08.buffer_reads        46443                      
system.ruby.network.routers08.buffer_writes        46443                      
system.ruby.network.routers08.crossbar_activity        46443                      
system.ruby.network.routers08.pwrStateResidencyTicks::UNDEFINED    527294000                       # Cumulative time (in ticks) in various power states
system.ruby.network.routers08.sw_input_arbiter_activity        48740                      
system.ruby.network.routers08.sw_output_arbiter_activity        46443                      
system.ruby.network.routers09.buffer_reads        23898                      
system.ruby.network.routers09.buffer_writes        23898                      
system.ruby.network.routers09.crossbar_activity        23898                      
system.ruby.network.routers09.pwrStateResidencyTicks::UNDEFINED    527294000                       # Cumulative time (in ticks) in various power states
system.ruby.network.routers09.sw_input_arbiter_activity        24108                      
system.ruby.network.routers09.sw_output_arbiter_activity        23898                      
system.ruby.network.routers10.buffer_reads        25324                      
system.ruby.network.routers10.buffer_writes        25324                      
system.ruby.network.routers10.crossbar_activity        25324                      
system.ruby.network.routers10.pwrStateResidencyTicks::UNDEFINED    527294000                       # Cumulative time (in ticks) in various power states
system.ruby.network.routers10.sw_input_arbiter_activity        25593                      
system.ruby.network.routers10.sw_output_arbiter_activity        25324                      
system.ruby.network.routers11.buffer_reads        30780                      
system.ruby.network.routers11.buffer_writes        30780                      
system.ruby.network.routers11.crossbar_activity        30778                      
system.ruby.network.routers11.pwrStateResidencyTicks::UNDEFINED    527294000                       # Cumulative time (in ticks) in various power states
system.ruby.network.routers11.sw_input_arbiter_activity        33787                      
system.ruby.network.routers11.sw_output_arbiter_activity        30778                      
system.ruby.network.routers12.buffer_reads        46222                      
system.ruby.network.routers12.buffer_writes        46222                      
system.ruby.network.routers12.crossbar_activity        46222                      
system.ruby.network.routers12.pwrStateResidencyTicks::UNDEFINED    527294000                       # Cumulative time (in ticks) in various power states
system.ruby.network.routers12.sw_input_arbiter_activity        50249                      
system.ruby.network.routers12.sw_output_arbiter_activity        46222                      
system.ruby.network.routers13.buffer_reads        31219                      
system.ruby.network.routers13.buffer_writes        31219                      
system.ruby.network.routers13.crossbar_activity        31219                      
system.ruby.network.routers13.pwrStateResidencyTicks::UNDEFINED    527294000                       # Cumulative time (in ticks) in various power states
system.ruby.network.routers13.sw_input_arbiter_activity        31487                      
system.ruby.network.routers13.sw_output_arbiter_activity        31219                      
system.ruby.network.routers14.buffer_reads        27992                      
system.ruby.network.routers14.buffer_writes        27992                      
system.ruby.network.routers14.crossbar_activity        27992                      
system.ruby.network.routers14.pwrStateResidencyTicks::UNDEFINED    527294000                       # Cumulative time (in ticks) in various power states
system.ruby.network.routers14.sw_input_arbiter_activity        28304                      
system.ruby.network.routers14.sw_output_arbiter_activity        27992                      
system.ruby.network.routers15.buffer_reads        25965                      
system.ruby.network.routers15.buffer_writes        25965                      
system.ruby.network.routers15.crossbar_activity        25965                      
system.ruby.network.routers15.pwrStateResidencyTicks::UNDEFINED    527294000                       # Cumulative time (in ticks) in various power states
system.ruby.network.routers15.sw_input_arbiter_activity        26958                      
system.ruby.network.routers15.sw_output_arbiter_activity        25965                      
system.ruby.outstanding_req_hist_seqr::bucket_size            1                      
system.ruby.outstanding_req_hist_seqr::max_bucket            9                      
system.ruby.outstanding_req_hist_seqr::samples       195786                      
system.ruby.outstanding_req_hist_seqr::mean            1                      
system.ruby.outstanding_req_hist_seqr::gmean            1                      
system.ruby.outstanding_req_hist_seqr    |           0      0.00%      0.00% |      195786    100.00%    100.00% |           0      0.00%    100.00% |           0      0.00%    100.00% |           0      0.00%    100.00% |           0      0.00%    100.00% |           0      0.00%    100.00% |           0      0.00%    100.00% |           0      0.00%    100.00% |           0      0.00%    100.00%
system.ruby.outstanding_req_hist_seqr::total       195786                      
system.ruby.pwrStateResidencyTicks::UNDEFINED    527294000                       # Cumulative time (in ticks) in various power states
system.sys_port_proxy.pwrStateResidencyTicks::UNDEFINED    527294000                       # Cumulative time (in ticks) in various power states
system.voltage_domain.voltage                       1                       # Voltage in Volts

---------- End Simulation Statistics   ----------
