
---------- Begin Simulation Statistics ----------
final_tick                                  761932500                       # Number of ticks from beginning of simulation (restored from checkpoints and never reset)
host_inst_rate                                  41433                       # Simulator instruction rate (inst/s)
host_mem_usage                                5159404                       # Number of bytes of host memory used
host_op_rate                                    41524                       # Simulator op (including micro ops) rate (op/s)
host_seconds                                     4.11                       # Real time elapsed on the host
host_tick_rate                              185331137                       # Simulator tick rate (ticks/s)
sim_freq                                 1000000000000                       # Frequency of simulated ticks
sim_insts                                      170331                       # Number of instructions simulated
sim_ops                                        170713                       # Number of ops (including micro ops) simulated
sim_seconds                                  0.000762                       # Number of seconds simulated
sim_ticks                                   761932500                       # Number of ticks simulated
system.clk_domain.clock                          1000                       # Clock period in ticks
system.cpu00.Branches                           22345                       # Number of branches fetched
system.cpu00.committedInsts                    100001                       # Number of instructions committed
system.cpu00.committedOps                      100294                       # Number of ops (including micro ops) committed
system.cpu00.dtb.accesses                           0                       # DTB accesses
system.cpu00.dtb.hits                               0                       # DTB hits
system.cpu00.dtb.misses                             0                       # DTB misses
system.cpu00.dtb.pwrStateResidencyTicks::UNDEFINED    761932500                       # Cumulative time (in ticks) in various power states
system.cpu00.dtb.read_accesses                      0                       # DTB read accesses
system.cpu00.dtb.read_hits                          0                       # DTB read hits
system.cpu00.dtb.read_misses                        0                       # DTB read misses
system.cpu00.dtb.write_accesses                     0                       # DTB write accesses
system.cpu00.dtb.write_hits                         0                       # DTB write hits
system.cpu00.dtb.write_misses                       0                       # DTB write misses
system.cpu00.idle_fraction                   0.004434                       # Percentage of idle cycles
system.cpu00.itb.accesses                           0                       # DTB accesses
system.cpu00.itb.hits                               0                       # DTB hits
system.cpu00.itb.misses                             0                       # DTB misses
system.cpu00.itb.pwrStateResidencyTicks::UNDEFINED    761932500                       # Cumulative time (in ticks) in various power states
system.cpu00.itb.read_accesses                      0                       # DTB read accesses
system.cpu00.itb.read_hits                          0                       # DTB read hits
system.cpu00.itb.read_misses                        0                       # DTB read misses
system.cpu00.itb.write_accesses                     0                       # DTB write accesses
system.cpu00.itb.write_hits                         0                       # DTB write hits
system.cpu00.itb.write_misses                       0                       # DTB write misses
system.cpu00.not_idle_fraction               0.995566                       # Percentage of non-idle cycles
system.cpu00.numCycles                        1523865                       # number of cpu cycles simulated
system.cpu00.numPwrStateTransitions                 2                       # Number of power state transitions
system.cpu00.numWorkItemsCompleted                  0                       # number of work items this cpu completed
system.cpu00.numWorkItemsStarted                    0                       # number of work items this cpu started
system.cpu00.num_busy_cycles             1517108.000009                       # Number of busy cycles
system.cpu00.num_conditional_control_insts        15927                       # number of instructions that are conditional controls
system.cpu00.num_fp_alu_accesses                   12                       # Number of float alu accesses
system.cpu00.num_fp_insts                          12                       # number of float instructions
system.cpu00.num_fp_register_reads                 12                       # number of times the floating registers were read
system.cpu00.num_fp_register_writes                 0                       # number of times the floating registers were written
system.cpu00.num_func_calls                      6418                       # number of times a function call or return occured
system.cpu00.num_idle_cycles              6756.999991                       # Number of idle cycles
system.cpu00.num_int_alu_accesses               98836                       # Number of integer alu accesses
system.cpu00.num_int_insts                      98836                       # number of integer instructions
system.cpu00.num_int_register_reads            120833                       # number of times the integer registers were read
system.cpu00.num_int_register_writes            64478                       # number of times the integer registers were written
system.cpu00.num_load_insts                     20286                       # Number of load instructions
system.cpu00.num_mem_refs                       36551                       # number of memory refs
system.cpu00.num_store_insts                    16265                       # Number of store instructions
system.cpu00.num_vec_alu_accesses                   0                       # Number of vector alu accesses
system.cpu00.num_vec_insts                          0                       # number of vector instructions
system.cpu00.num_vec_register_reads                 0                       # number of times the vector registers were read
system.cpu00.num_vec_register_writes                0                       # number of times the vector registers were written
system.cpu00.op_class::No_OpClass                 860      0.86%      0.86% # Class of executed instruction
system.cpu00.op_class::IntAlu                   62920     62.69%     63.55% # Class of executed instruction
system.cpu00.op_class::IntMult                     30      0.03%     63.58% # Class of executed instruction
system.cpu00.op_class::IntDiv                       6      0.01%     63.58% # Class of executed instruction
system.cpu00.op_class::FloatAdd                     0      0.00%     63.58% # Class of executed instruction
system.cpu00.op_class::FloatCmp                     0      0.00%     63.58% # Class of executed instruction
system.cpu00.op_class::FloatCvt                     0      0.00%     63.58% # Class of executed instruction
system.cpu00.op_class::FloatMult                    0      0.00%     63.58% # Class of executed instruction
system.cpu00.op_class::FloatMultAcc                 0      0.00%     63.58% # Class of executed instruction
system.cpu00.op_class::FloatDiv                     0      0.00%     63.58% # Class of executed instruction
system.cpu00.op_class::FloatMisc                    0      0.00%     63.58% # Class of executed instruction
system.cpu00.op_class::FloatSqrt                    0      0.00%     63.58% # Class of executed instruction
system.cpu00.op_class::SimdAdd                      0      0.00%     63.58% # Class of executed instruction
system.cpu00.op_class::SimdAddAcc                   0      0.00%     63.58% # Class of executed instruction
system.cpu00.op_class::SimdAlu                      0      0.00%     63.58% # Class of executed instruction
system.cpu00.op_class::SimdCmp                      0      0.00%     63.58% # Class of executed instruction
system.cpu00.op_class::SimdCvt                      0      0.00%     63.58% # Class of executed instruction
system.cpu00.op_class::SimdMisc                     0      0.00%     63.58% # Class of executed instruction
system.cpu00.op_class::SimdMult                     0      0.00%     63.58% # Class of executed instruction
system.cpu00.op_class::SimdMultAcc                  0      0.00%     63.58% # Class of executed instruction
system.cpu00.op_class::SimdShift                    0      0.00%     63.58% # Class of executed instruction
system.cpu00.op_class::SimdShiftAcc                 0      0.00%     63.58% # Class of executed instruction
system.cpu00.op_class::SimdSqrt                     0      0.00%     63.58% # Class of executed instruction
system.cpu00.op_class::SimdFloatAdd                 0      0.00%     63.58% # Class of executed instruction
system.cpu00.op_class::SimdFloatAlu                 0      0.00%     63.58% # Class of executed instruction
system.cpu00.op_class::SimdFloatCmp                 0      0.00%     63.58% # Class of executed instruction
system.cpu00.op_class::SimdFloatCvt                 0      0.00%     63.58% # Class of executed instruction
system.cpu00.op_class::SimdFloatDiv                 0      0.00%     63.58% # Class of executed instruction
system.cpu00.op_class::SimdFloatMisc                0      0.00%     63.58% # Class of executed instruction
system.cpu00.op_class::SimdFloatMult                0      0.00%     63.58% # Class of executed instruction
system.cpu00.op_class::SimdFloatMultAcc             0      0.00%     63.58% # Class of executed instruction
system.cpu00.op_class::SimdFloatSqrt                0      0.00%     63.58% # Class of executed instruction
system.cpu00.op_class::SimdAes                      0      0.00%     63.58% # Class of executed instruction
system.cpu00.op_class::SimdAesMix                   0      0.00%     63.58% # Class of executed instruction
system.cpu00.op_class::SimdSha1Hash                 0      0.00%     63.58% # Class of executed instruction
system.cpu00.op_class::SimdSha1Hash2                0      0.00%     63.58% # Class of executed instruction
system.cpu00.op_class::SimdSha256Hash               0      0.00%     63.58% # Class of executed instruction
system.cpu00.op_class::SimdSha256Hash2              0      0.00%     63.58% # Class of executed instruction
system.cpu00.op_class::SimdShaSigma2                0      0.00%     63.58% # Class of executed instruction
system.cpu00.op_class::SimdShaSigma3                0      0.00%     63.58% # Class of executed instruction
system.cpu00.op_class::MemRead                  20571     20.50%     84.08% # Class of executed instruction
system.cpu00.op_class::MemWrite                 15968     15.91%     99.99% # Class of executed instruction
system.cpu00.op_class::FloatMemRead                 0      0.00%     99.99% # Class of executed instruction
system.cpu00.op_class::FloatMemWrite               12      0.01%    100.00% # Class of executed instruction
system.cpu00.op_class::IprAccess                    0      0.00%    100.00% # Class of executed instruction
system.cpu00.op_class::InstPrefetch                 0      0.00%    100.00% # Class of executed instruction
system.cpu00.op_class::total                   100367                       # Class of executed instruction
system.cpu00.pwrStateClkGateDist::samples            1                       # Distribution of time spent in the clock gated state
system.cpu00.pwrStateClkGateDist::mean        3378500                       # Distribution of time spent in the clock gated state
system.cpu00.pwrStateClkGateDist::1000-5e+10            1    100.00%    100.00% # Distribution of time spent in the clock gated state
system.cpu00.pwrStateClkGateDist::min_value      3378500                       # Distribution of time spent in the clock gated state
system.cpu00.pwrStateClkGateDist::max_value      3378500                       # Distribution of time spent in the clock gated state
system.cpu00.pwrStateClkGateDist::total             1                       # Distribution of time spent in the clock gated state
system.cpu00.pwrStateResidencyTicks::ON     758554000                       # Cumulative time (in ticks) in various power states
system.cpu00.pwrStateResidencyTicks::CLK_GATED      3378500                       # Cumulative time (in ticks) in various power states
system.cpu00.workload.numSyscalls                  72                       # Number of system calls
system.cpu01.Branches                             923                       # Number of branches fetched
system.cpu01.committedInsts                      4918                       # Number of instructions committed
system.cpu01.committedOps                        4924                       # Number of ops (including micro ops) committed
system.cpu01.dtb.accesses                           0                       # DTB accesses
system.cpu01.dtb.hits                               0                       # DTB hits
system.cpu01.dtb.misses                             0                       # DTB misses
system.cpu01.dtb.pwrStateResidencyTicks::UNDEFINED    761932500                       # Cumulative time (in ticks) in various power states
system.cpu01.dtb.read_accesses                      0                       # DTB read accesses
system.cpu01.dtb.read_hits                          0                       # DTB read hits
system.cpu01.dtb.read_misses                        0                       # DTB read misses
system.cpu01.dtb.write_accesses                     0                       # DTB write accesses
system.cpu01.dtb.write_hits                         0                       # DTB write hits
system.cpu01.dtb.write_misses                       0                       # DTB write misses
system.cpu01.idle_fraction                   0.980213                       # Percentage of idle cycles
system.cpu01.itb.accesses                           0                       # DTB accesses
system.cpu01.itb.hits                               0                       # DTB hits
system.cpu01.itb.misses                             0                       # DTB misses
system.cpu01.itb.pwrStateResidencyTicks::UNDEFINED    761932500                       # Cumulative time (in ticks) in various power states
system.cpu01.itb.read_accesses                      0                       # DTB read accesses
system.cpu01.itb.read_hits                          0                       # DTB read hits
system.cpu01.itb.read_misses                        0                       # DTB read misses
system.cpu01.itb.write_accesses                     0                       # DTB write accesses
system.cpu01.itb.write_hits                         0                       # DTB write hits
system.cpu01.itb.write_misses                       0                       # DTB write misses
system.cpu01.not_idle_fraction               0.019787                       # Percentage of non-idle cycles
system.cpu01.numCycles                        1523865                       # number of cpu cycles simulated
system.cpu01.numPwrStateTransitions                 2                       # Number of power state transitions
system.cpu01.numWorkItemsCompleted                  0                       # number of work items this cpu completed
system.cpu01.numWorkItemsStarted                    0                       # number of work items this cpu started
system.cpu01.num_busy_cycles             30152.001960                       # Number of busy cycles
system.cpu01.num_conditional_control_insts          482                       # number of instructions that are conditional controls
system.cpu01.num_fp_alu_accesses                   12                       # Number of float alu accesses
system.cpu01.num_fp_insts                          12                       # number of float instructions
system.cpu01.num_fp_register_reads                 12                       # number of times the floating registers were read
system.cpu01.num_fp_register_writes                 0                       # number of times the floating registers were written
system.cpu01.num_func_calls                       441                       # number of times a function call or return occured
system.cpu01.num_idle_cycles             1493712.998040                       # Number of idle cycles
system.cpu01.num_int_alu_accesses                4838                       # Number of integer alu accesses
system.cpu01.num_int_insts                       4838                       # number of integer instructions
system.cpu01.num_int_register_reads              5573                       # number of times the integer registers were read
system.cpu01.num_int_register_writes             3589                       # number of times the integer registers were written
system.cpu01.num_load_insts                      1202                       # Number of load instructions
system.cpu01.num_mem_refs                        1781                       # number of memory refs
system.cpu01.num_store_insts                      579                       # Number of store instructions
system.cpu01.num_vec_alu_accesses                   0                       # Number of vector alu accesses
system.cpu01.num_vec_insts                          0                       # number of vector instructions
system.cpu01.num_vec_register_reads                 0                       # number of times the vector registers were read
system.cpu01.num_vec_register_writes                0                       # number of times the vector registers were written
system.cpu01.op_class::No_OpClass                  10      0.20%      0.20% # Class of executed instruction
system.cpu01.op_class::IntAlu                    3132     63.58%     63.78% # Class of executed instruction
system.cpu01.op_class::IntMult                      1      0.02%     63.80% # Class of executed instruction
system.cpu01.op_class::IntDiv                       2      0.04%     63.84% # Class of executed instruction
system.cpu01.op_class::FloatAdd                     0      0.00%     63.84% # Class of executed instruction
system.cpu01.op_class::FloatCmp                     0      0.00%     63.84% # Class of executed instruction
system.cpu01.op_class::FloatCvt                     0      0.00%     63.84% # Class of executed instruction
system.cpu01.op_class::FloatMult                    0      0.00%     63.84% # Class of executed instruction
system.cpu01.op_class::FloatMultAcc                 0      0.00%     63.84% # Class of executed instruction
system.cpu01.op_class::FloatDiv                     0      0.00%     63.84% # Class of executed instruction
system.cpu01.op_class::FloatMisc                    0      0.00%     63.84% # Class of executed instruction
system.cpu01.op_class::FloatSqrt                    0      0.00%     63.84% # Class of executed instruction
system.cpu01.op_class::SimdAdd                      0      0.00%     63.84% # Class of executed instruction
system.cpu01.op_class::SimdAddAcc                   0      0.00%     63.84% # Class of executed instruction
system.cpu01.op_class::SimdAlu                      0      0.00%     63.84% # Class of executed instruction
system.cpu01.op_class::SimdCmp                      0      0.00%     63.84% # Class of executed instruction
system.cpu01.op_class::SimdCvt                      0      0.00%     63.84% # Class of executed instruction
system.cpu01.op_class::SimdMisc                     0      0.00%     63.84% # Class of executed instruction
system.cpu01.op_class::SimdMult                     0      0.00%     63.84% # Class of executed instruction
system.cpu01.op_class::SimdMultAcc                  0      0.00%     63.84% # Class of executed instruction
system.cpu01.op_class::SimdShift                    0      0.00%     63.84% # Class of executed instruction
system.cpu01.op_class::SimdShiftAcc                 0      0.00%     63.84% # Class of executed instruction
system.cpu01.op_class::SimdSqrt                     0      0.00%     63.84% # Class of executed instruction
system.cpu01.op_class::SimdFloatAdd                 0      0.00%     63.84% # Class of executed instruction
system.cpu01.op_class::SimdFloatAlu                 0      0.00%     63.84% # Class of executed instruction
system.cpu01.op_class::SimdFloatCmp                 0      0.00%     63.84% # Class of executed instruction
system.cpu01.op_class::SimdFloatCvt                 0      0.00%     63.84% # Class of executed instruction
system.cpu01.op_class::SimdFloatDiv                 0      0.00%     63.84% # Class of executed instruction
system.cpu01.op_class::SimdFloatMisc                0      0.00%     63.84% # Class of executed instruction
system.cpu01.op_class::SimdFloatMult                0      0.00%     63.84% # Class of executed instruction
system.cpu01.op_class::SimdFloatMultAcc             0      0.00%     63.84% # Class of executed instruction
system.cpu01.op_class::SimdFloatSqrt                0      0.00%     63.84% # Class of executed instruction
system.cpu01.op_class::SimdAes                      0      0.00%     63.84% # Class of executed instruction
system.cpu01.op_class::SimdAesMix                   0      0.00%     63.84% # Class of executed instruction
system.cpu01.op_class::SimdSha1Hash                 0      0.00%     63.84% # Class of executed instruction
system.cpu01.op_class::SimdSha1Hash2                0      0.00%     63.84% # Class of executed instruction
system.cpu01.op_class::SimdSha256Hash               0      0.00%     63.84% # Class of executed instruction
system.cpu01.op_class::SimdSha256Hash2              0      0.00%     63.84% # Class of executed instruction
system.cpu01.op_class::SimdShaSigma2                0      0.00%     63.84% # Class of executed instruction
system.cpu01.op_class::SimdShaSigma3                0      0.00%     63.84% # Class of executed instruction
system.cpu01.op_class::MemRead                   1206     24.48%     88.33% # Class of executed instruction
system.cpu01.op_class::MemWrite                   563     11.43%     99.76% # Class of executed instruction
system.cpu01.op_class::FloatMemRead                 0      0.00%     99.76% # Class of executed instruction
system.cpu01.op_class::FloatMemWrite               12      0.24%    100.00% # Class of executed instruction
system.cpu01.op_class::IprAccess                    0      0.00%    100.00% # Class of executed instruction
system.cpu01.op_class::InstPrefetch                 0      0.00%    100.00% # Class of executed instruction
system.cpu01.op_class::total                     4926                       # Class of executed instruction
system.cpu01.pwrStateClkGateDist::samples            1                       # Distribution of time spent in the clock gated state
system.cpu01.pwrStateClkGateDist::mean      162551000                       # Distribution of time spent in the clock gated state
system.cpu01.pwrStateClkGateDist::1000-5e+10            1    100.00%    100.00% # Distribution of time spent in the clock gated state
system.cpu01.pwrStateClkGateDist::min_value    162551000                       # Distribution of time spent in the clock gated state
system.cpu01.pwrStateClkGateDist::max_value    162551000                       # Distribution of time spent in the clock gated state
system.cpu01.pwrStateClkGateDist::total             1                       # Distribution of time spent in the clock gated state
system.cpu01.pwrStateResidencyTicks::ON     599381500                       # Cumulative time (in ticks) in various power states
system.cpu01.pwrStateResidencyTicks::CLK_GATED    162551000                       # Cumulative time (in ticks) in various power states
system.cpu02.Branches                             918                       # Number of branches fetched
system.cpu02.committedInsts                      4898                       # Number of instructions committed
system.cpu02.committedOps                        4904                       # Number of ops (including micro ops) committed
system.cpu02.dtb.accesses                           0                       # DTB accesses
system.cpu02.dtb.hits                               0                       # DTB hits
system.cpu02.dtb.misses                             0                       # DTB misses
system.cpu02.dtb.pwrStateResidencyTicks::UNDEFINED    761932500                       # Cumulative time (in ticks) in various power states
system.cpu02.dtb.read_accesses                      0                       # DTB read accesses
system.cpu02.dtb.read_hits                          0                       # DTB read hits
system.cpu02.dtb.read_misses                        0                       # DTB read misses
system.cpu02.dtb.write_accesses                     0                       # DTB write accesses
system.cpu02.dtb.write_hits                         0                       # DTB write hits
system.cpu02.dtb.write_misses                       0                       # DTB write misses
system.cpu02.idle_fraction                   0.982959                       # Percentage of idle cycles
system.cpu02.itb.accesses                           0                       # DTB accesses
system.cpu02.itb.hits                               0                       # DTB hits
system.cpu02.itb.misses                             0                       # DTB misses
system.cpu02.itb.pwrStateResidencyTicks::UNDEFINED    761932500                       # Cumulative time (in ticks) in various power states
system.cpu02.itb.read_accesses                      0                       # DTB read accesses
system.cpu02.itb.read_hits                          0                       # DTB read hits
system.cpu02.itb.read_misses                        0                       # DTB read misses
system.cpu02.itb.write_accesses                     0                       # DTB write accesses
system.cpu02.itb.write_hits                         0                       # DTB write hits
system.cpu02.itb.write_misses                       0                       # DTB write misses
system.cpu02.not_idle_fraction               0.017041                       # Percentage of non-idle cycles
system.cpu02.numCycles                        1523864                       # number of cpu cycles simulated
system.cpu02.numPwrStateTransitions                 2                       # Number of power state transitions
system.cpu02.numWorkItemsCompleted                  0                       # number of work items this cpu completed
system.cpu02.numWorkItemsStarted                    0                       # number of work items this cpu started
system.cpu02.num_busy_cycles             25967.984925                       # Number of busy cycles
system.cpu02.num_conditional_control_insts          481                       # number of instructions that are conditional controls
system.cpu02.num_fp_alu_accesses                   12                       # Number of float alu accesses
system.cpu02.num_fp_insts                          12                       # number of float instructions
system.cpu02.num_fp_register_reads                 12                       # number of times the floating registers were read
system.cpu02.num_fp_register_writes                 0                       # number of times the floating registers were written
system.cpu02.num_func_calls                       437                       # number of times a function call or return occured
system.cpu02.num_idle_cycles             1497896.015075                       # Number of idle cycles
system.cpu02.num_int_alu_accesses                4820                       # Number of integer alu accesses
system.cpu02.num_int_insts                       4820                       # number of integer instructions
system.cpu02.num_int_register_reads              5554                       # number of times the integer registers were read
system.cpu02.num_int_register_writes             3575                       # number of times the integer registers were written
system.cpu02.num_load_insts                      1197                       # Number of load instructions
system.cpu02.num_mem_refs                        1775                       # number of memory refs
system.cpu02.num_store_insts                      578                       # Number of store instructions
system.cpu02.num_vec_alu_accesses                   0                       # Number of vector alu accesses
system.cpu02.num_vec_insts                          0                       # number of vector instructions
system.cpu02.num_vec_register_reads                 0                       # number of times the vector registers were read
system.cpu02.num_vec_register_writes                0                       # number of times the vector registers were written
system.cpu02.op_class::No_OpClass                  10      0.20%      0.20% # Class of executed instruction
system.cpu02.op_class::IntAlu                    3118     63.55%     63.76% # Class of executed instruction
system.cpu02.op_class::IntMult                      1      0.02%     63.78% # Class of executed instruction
system.cpu02.op_class::IntDiv                       2      0.04%     63.82% # Class of executed instruction
system.cpu02.op_class::FloatAdd                     0      0.00%     63.82% # Class of executed instruction
system.cpu02.op_class::FloatCmp                     0      0.00%     63.82% # Class of executed instruction
system.cpu02.op_class::FloatCvt                     0      0.00%     63.82% # Class of executed instruction
system.cpu02.op_class::FloatMult                    0      0.00%     63.82% # Class of executed instruction
system.cpu02.op_class::FloatMultAcc                 0      0.00%     63.82% # Class of executed instruction
system.cpu02.op_class::FloatDiv                     0      0.00%     63.82% # Class of executed instruction
system.cpu02.op_class::FloatMisc                    0      0.00%     63.82% # Class of executed instruction
system.cpu02.op_class::FloatSqrt                    0      0.00%     63.82% # Class of executed instruction
system.cpu02.op_class::SimdAdd                      0      0.00%     63.82% # Class of executed instruction
system.cpu02.op_class::SimdAddAcc                   0      0.00%     63.82% # Class of executed instruction
system.cpu02.op_class::SimdAlu                      0      0.00%     63.82% # Class of executed instruction
system.cpu02.op_class::SimdCmp                      0      0.00%     63.82% # Class of executed instruction
system.cpu02.op_class::SimdCvt                      0      0.00%     63.82% # Class of executed instruction
system.cpu02.op_class::SimdMisc                     0      0.00%     63.82% # Class of executed instruction
system.cpu02.op_class::SimdMult                     0      0.00%     63.82% # Class of executed instruction
system.cpu02.op_class::SimdMultAcc                  0      0.00%     63.82% # Class of executed instruction
system.cpu02.op_class::SimdShift                    0      0.00%     63.82% # Class of executed instruction
system.cpu02.op_class::SimdShiftAcc                 0      0.00%     63.82% # Class of executed instruction
system.cpu02.op_class::SimdSqrt                     0      0.00%     63.82% # Class of executed instruction
system.cpu02.op_class::SimdFloatAdd                 0      0.00%     63.82% # Class of executed instruction
system.cpu02.op_class::SimdFloatAlu                 0      0.00%     63.82% # Class of executed instruction
system.cpu02.op_class::SimdFloatCmp                 0      0.00%     63.82% # Class of executed instruction
system.cpu02.op_class::SimdFloatCvt                 0      0.00%     63.82% # Class of executed instruction
system.cpu02.op_class::SimdFloatDiv                 0      0.00%     63.82% # Class of executed instruction
system.cpu02.op_class::SimdFloatMisc                0      0.00%     63.82% # Class of executed instruction
system.cpu02.op_class::SimdFloatMult                0      0.00%     63.82% # Class of executed instruction
system.cpu02.op_class::SimdFloatMultAcc             0      0.00%     63.82% # Class of executed instruction
system.cpu02.op_class::SimdFloatSqrt                0      0.00%     63.82% # Class of executed instruction
system.cpu02.op_class::SimdAes                      0      0.00%     63.82% # Class of executed instruction
system.cpu02.op_class::SimdAesMix                   0      0.00%     63.82% # Class of executed instruction
system.cpu02.op_class::SimdSha1Hash                 0      0.00%     63.82% # Class of executed instruction
system.cpu02.op_class::SimdSha1Hash2                0      0.00%     63.82% # Class of executed instruction
system.cpu02.op_class::SimdSha256Hash               0      0.00%     63.82% # Class of executed instruction
system.cpu02.op_class::SimdSha256Hash2              0      0.00%     63.82% # Class of executed instruction
system.cpu02.op_class::SimdShaSigma2                0      0.00%     63.82% # Class of executed instruction
system.cpu02.op_class::SimdShaSigma3                0      0.00%     63.82% # Class of executed instruction
system.cpu02.op_class::MemRead                   1201     24.48%     88.30% # Class of executed instruction
system.cpu02.op_class::MemWrite                   562     11.46%     99.76% # Class of executed instruction
system.cpu02.op_class::FloatMemRead                 0      0.00%     99.76% # Class of executed instruction
system.cpu02.op_class::FloatMemWrite               12      0.24%    100.00% # Class of executed instruction
system.cpu02.op_class::IprAccess                    0      0.00%    100.00% # Class of executed instruction
system.cpu02.op_class::InstPrefetch                 0      0.00%    100.00% # Class of executed instruction
system.cpu02.op_class::total                     4906                       # Class of executed instruction
system.cpu02.pwrStateClkGateDist::samples            1                       # Distribution of time spent in the clock gated state
system.cpu02.pwrStateClkGateDist::mean      153119000                       # Distribution of time spent in the clock gated state
system.cpu02.pwrStateClkGateDist::1000-5e+10            1    100.00%    100.00% # Distribution of time spent in the clock gated state
system.cpu02.pwrStateClkGateDist::min_value    153119000                       # Distribution of time spent in the clock gated state
system.cpu02.pwrStateClkGateDist::max_value    153119000                       # Distribution of time spent in the clock gated state
system.cpu02.pwrStateClkGateDist::total             1                       # Distribution of time spent in the clock gated state
system.cpu02.pwrStateResidencyTicks::ON     608813500                       # Cumulative time (in ticks) in various power states
system.cpu02.pwrStateResidencyTicks::CLK_GATED    153119000                       # Cumulative time (in ticks) in various power states
system.cpu03.Branches                             925                       # Number of branches fetched
system.cpu03.committedInsts                      4896                       # Number of instructions committed
system.cpu03.committedOps                        4902                       # Number of ops (including micro ops) committed
system.cpu03.dtb.accesses                           0                       # DTB accesses
system.cpu03.dtb.hits                               0                       # DTB hits
system.cpu03.dtb.misses                             0                       # DTB misses
system.cpu03.dtb.pwrStateResidencyTicks::UNDEFINED    761932500                       # Cumulative time (in ticks) in various power states
system.cpu03.dtb.read_accesses                      0                       # DTB read accesses
system.cpu03.dtb.read_hits                          0                       # DTB read hits
system.cpu03.dtb.read_misses                        0                       # DTB read misses
system.cpu03.dtb.write_accesses                     0                       # DTB write accesses
system.cpu03.dtb.write_hits                         0                       # DTB write hits
system.cpu03.dtb.write_misses                       0                       # DTB write misses
system.cpu03.idle_fraction                   0.982997                       # Percentage of idle cycles
system.cpu03.itb.accesses                           0                       # DTB accesses
system.cpu03.itb.hits                               0                       # DTB hits
system.cpu03.itb.misses                             0                       # DTB misses
system.cpu03.itb.pwrStateResidencyTicks::UNDEFINED    761932500                       # Cumulative time (in ticks) in various power states
system.cpu03.itb.read_accesses                      0                       # DTB read accesses
system.cpu03.itb.read_hits                          0                       # DTB read hits
system.cpu03.itb.read_misses                        0                       # DTB read misses
system.cpu03.itb.write_accesses                     0                       # DTB write accesses
system.cpu03.itb.write_hits                         0                       # DTB write hits
system.cpu03.itb.write_misses                       0                       # DTB write misses
system.cpu03.not_idle_fraction               0.017003                       # Percentage of non-idle cycles
system.cpu03.numCycles                        1523798                       # number of cpu cycles simulated
system.cpu03.numPwrStateTransitions                 2                       # Number of power state transitions
system.cpu03.numWorkItemsCompleted                  0                       # number of work items this cpu completed
system.cpu03.numWorkItemsStarted                    0                       # number of work items this cpu started
system.cpu03.num_busy_cycles             25909.862733                       # Number of busy cycles
system.cpu03.num_conditional_control_insts          471                       # number of instructions that are conditional controls
system.cpu03.num_fp_alu_accesses                   12                       # Number of float alu accesses
system.cpu03.num_fp_insts                          12                       # number of float instructions
system.cpu03.num_fp_register_reads                 12                       # number of times the floating registers were read
system.cpu03.num_fp_register_writes                 0                       # number of times the floating registers were written
system.cpu03.num_func_calls                       454                       # number of times a function call or return occured
system.cpu03.num_idle_cycles             1497888.137267                       # Number of idle cycles
system.cpu03.num_int_alu_accesses                4802                       # Number of integer alu accesses
system.cpu03.num_int_insts                       4802                       # number of integer instructions
system.cpu03.num_int_register_reads              5539                       # number of times the integer registers were read
system.cpu03.num_int_register_writes             3565                       # number of times the integer registers were written
system.cpu03.num_load_insts                      1198                       # Number of load instructions
system.cpu03.num_mem_refs                        1773                       # number of memory refs
system.cpu03.num_store_insts                      575                       # Number of store instructions
system.cpu03.num_vec_alu_accesses                   0                       # Number of vector alu accesses
system.cpu03.num_vec_insts                          0                       # number of vector instructions
system.cpu03.num_vec_register_reads                 0                       # number of times the vector registers were read
system.cpu03.num_vec_register_writes                0                       # number of times the vector registers were written
system.cpu03.op_class::No_OpClass                  10      0.20%      0.20% # Class of executed instruction
system.cpu03.op_class::IntAlu                    3118     63.58%     63.78% # Class of executed instruction
system.cpu03.op_class::IntMult                      1      0.02%     63.81% # Class of executed instruction
system.cpu03.op_class::IntDiv                       2      0.04%     63.85% # Class of executed instruction
system.cpu03.op_class::FloatAdd                     0      0.00%     63.85% # Class of executed instruction
system.cpu03.op_class::FloatCmp                     0      0.00%     63.85% # Class of executed instruction
system.cpu03.op_class::FloatCvt                     0      0.00%     63.85% # Class of executed instruction
system.cpu03.op_class::FloatMult                    0      0.00%     63.85% # Class of executed instruction
system.cpu03.op_class::FloatMultAcc                 0      0.00%     63.85% # Class of executed instruction
system.cpu03.op_class::FloatDiv                     0      0.00%     63.85% # Class of executed instruction
system.cpu03.op_class::FloatMisc                    0      0.00%     63.85% # Class of executed instruction
system.cpu03.op_class::FloatSqrt                    0      0.00%     63.85% # Class of executed instruction
system.cpu03.op_class::SimdAdd                      0      0.00%     63.85% # Class of executed instruction
system.cpu03.op_class::SimdAddAcc                   0      0.00%     63.85% # Class of executed instruction
system.cpu03.op_class::SimdAlu                      0      0.00%     63.85% # Class of executed instruction
system.cpu03.op_class::SimdCmp                      0      0.00%     63.85% # Class of executed instruction
system.cpu03.op_class::SimdCvt                      0      0.00%     63.85% # Class of executed instruction
system.cpu03.op_class::SimdMisc                     0      0.00%     63.85% # Class of executed instruction
system.cpu03.op_class::SimdMult                     0      0.00%     63.85% # Class of executed instruction
system.cpu03.op_class::SimdMultAcc                  0      0.00%     63.85% # Class of executed instruction
system.cpu03.op_class::SimdShift                    0      0.00%     63.85% # Class of executed instruction
system.cpu03.op_class::SimdShiftAcc                 0      0.00%     63.85% # Class of executed instruction
system.cpu03.op_class::SimdSqrt                     0      0.00%     63.85% # Class of executed instruction
system.cpu03.op_class::SimdFloatAdd                 0      0.00%     63.85% # Class of executed instruction
system.cpu03.op_class::SimdFloatAlu                 0      0.00%     63.85% # Class of executed instruction
system.cpu03.op_class::SimdFloatCmp                 0      0.00%     63.85% # Class of executed instruction
system.cpu03.op_class::SimdFloatCvt                 0      0.00%     63.85% # Class of executed instruction
system.cpu03.op_class::SimdFloatDiv                 0      0.00%     63.85% # Class of executed instruction
system.cpu03.op_class::SimdFloatMisc                0      0.00%     63.85% # Class of executed instruction
system.cpu03.op_class::SimdFloatMult                0      0.00%     63.85% # Class of executed instruction
system.cpu03.op_class::SimdFloatMultAcc             0      0.00%     63.85% # Class of executed instruction
system.cpu03.op_class::SimdFloatSqrt                0      0.00%     63.85% # Class of executed instruction
system.cpu03.op_class::SimdAes                      0      0.00%     63.85% # Class of executed instruction
system.cpu03.op_class::SimdAesMix                   0      0.00%     63.85% # Class of executed instruction
system.cpu03.op_class::SimdSha1Hash                 0      0.00%     63.85% # Class of executed instruction
system.cpu03.op_class::SimdSha1Hash2                0      0.00%     63.85% # Class of executed instruction
system.cpu03.op_class::SimdSha256Hash               0      0.00%     63.85% # Class of executed instruction
system.cpu03.op_class::SimdSha256Hash2              0      0.00%     63.85% # Class of executed instruction
system.cpu03.op_class::SimdShaSigma2                0      0.00%     63.85% # Class of executed instruction
system.cpu03.op_class::SimdShaSigma3                0      0.00%     63.85% # Class of executed instruction
system.cpu03.op_class::MemRead                   1202     24.51%     88.36% # Class of executed instruction
system.cpu03.op_class::MemWrite                   559     11.40%     99.76% # Class of executed instruction
system.cpu03.op_class::FloatMemRead                 0      0.00%     99.76% # Class of executed instruction
system.cpu03.op_class::FloatMemWrite               12      0.24%    100.00% # Class of executed instruction
system.cpu03.op_class::IprAccess                    0      0.00%    100.00% # Class of executed instruction
system.cpu03.op_class::InstPrefetch                 0      0.00%    100.00% # Class of executed instruction
system.cpu03.op_class::total                     4904                       # Class of executed instruction
system.cpu03.pwrStateClkGateDist::samples            1                       # Distribution of time spent in the clock gated state
system.cpu03.pwrStateClkGateDist::mean      141875500                       # Distribution of time spent in the clock gated state
system.cpu03.pwrStateClkGateDist::1000-5e+10            1    100.00%    100.00% # Distribution of time spent in the clock gated state
system.cpu03.pwrStateClkGateDist::min_value    141875500                       # Distribution of time spent in the clock gated state
system.cpu03.pwrStateClkGateDist::max_value    141875500                       # Distribution of time spent in the clock gated state
system.cpu03.pwrStateClkGateDist::total             1                       # Distribution of time spent in the clock gated state
system.cpu03.pwrStateResidencyTicks::ON     620057000                       # Cumulative time (in ticks) in various power states
system.cpu03.pwrStateResidencyTicks::CLK_GATED    141875500                       # Cumulative time (in ticks) in various power states
system.cpu04.Branches                             924                       # Number of branches fetched
system.cpu04.committedInsts                      4887                       # Number of instructions committed
system.cpu04.committedOps                        4893                       # Number of ops (including micro ops) committed
system.cpu04.dtb.accesses                           0                       # DTB accesses
system.cpu04.dtb.hits                               0                       # DTB hits
system.cpu04.dtb.misses                             0                       # DTB misses
system.cpu04.dtb.pwrStateResidencyTicks::UNDEFINED    761932500                       # Cumulative time (in ticks) in various power states
system.cpu04.dtb.read_accesses                      0                       # DTB read accesses
system.cpu04.dtb.read_hits                          0                       # DTB read hits
system.cpu04.dtb.read_misses                        0                       # DTB read misses
system.cpu04.dtb.write_accesses                     0                       # DTB write accesses
system.cpu04.dtb.write_hits                         0                       # DTB write hits
system.cpu04.dtb.write_misses                       0                       # DTB write misses
system.cpu04.idle_fraction                   0.982591                       # Percentage of idle cycles
system.cpu04.itb.accesses                           0                       # DTB accesses
system.cpu04.itb.hits                               0                       # DTB hits
system.cpu04.itb.misses                             0                       # DTB misses
system.cpu04.itb.pwrStateResidencyTicks::UNDEFINED    761932500                       # Cumulative time (in ticks) in various power states
system.cpu04.itb.read_accesses                      0                       # DTB read accesses
system.cpu04.itb.read_hits                          0                       # DTB read hits
system.cpu04.itb.read_misses                        0                       # DTB read misses
system.cpu04.itb.write_accesses                     0                       # DTB write accesses
system.cpu04.itb.write_hits                         0                       # DTB write hits
system.cpu04.itb.write_misses                       0                       # DTB write misses
system.cpu04.not_idle_fraction               0.017409                       # Percentage of non-idle cycles
system.cpu04.numCycles                        1523865                       # number of cpu cycles simulated
system.cpu04.numPwrStateTransitions                 2                       # Number of power state transitions
system.cpu04.numWorkItemsCompleted                  0                       # number of work items this cpu completed
system.cpu04.numWorkItemsStarted                    0                       # number of work items this cpu started
system.cpu04.num_busy_cycles             26529.001965                       # Number of busy cycles
system.cpu04.num_conditional_control_insts          468                       # number of instructions that are conditional controls
system.cpu04.num_fp_alu_accesses                   12                       # Number of float alu accesses
system.cpu04.num_fp_insts                          12                       # number of float instructions
system.cpu04.num_fp_register_reads                 12                       # number of times the floating registers were read
system.cpu04.num_fp_register_writes                 0                       # number of times the floating registers were written
system.cpu04.num_func_calls                       456                       # number of times a function call or return occured
system.cpu04.num_idle_cycles             1497335.998035                       # Number of idle cycles
system.cpu04.num_int_alu_accesses                4791                       # Number of integer alu accesses
system.cpu04.num_int_insts                       4791                       # number of integer instructions
system.cpu04.num_int_register_reads              5525                       # number of times the integer registers were read
system.cpu04.num_int_register_writes             3558                       # number of times the integer registers were written
system.cpu04.num_load_insts                      1195                       # Number of load instructions
system.cpu04.num_mem_refs                        1769                       # number of memory refs
system.cpu04.num_store_insts                      574                       # Number of store instructions
system.cpu04.num_vec_alu_accesses                   0                       # Number of vector alu accesses
system.cpu04.num_vec_insts                          0                       # number of vector instructions
system.cpu04.num_vec_register_reads                 0                       # number of times the vector registers were read
system.cpu04.num_vec_register_writes                0                       # number of times the vector registers were written
system.cpu04.op_class::No_OpClass                  10      0.20%      0.20% # Class of executed instruction
system.cpu04.op_class::IntAlu                    3113     63.60%     63.80% # Class of executed instruction
system.cpu04.op_class::IntMult                      1      0.02%     63.82% # Class of executed instruction
system.cpu04.op_class::IntDiv                       2      0.04%     63.86% # Class of executed instruction
system.cpu04.op_class::FloatAdd                     0      0.00%     63.86% # Class of executed instruction
system.cpu04.op_class::FloatCmp                     0      0.00%     63.86% # Class of executed instruction
system.cpu04.op_class::FloatCvt                     0      0.00%     63.86% # Class of executed instruction
system.cpu04.op_class::FloatMult                    0      0.00%     63.86% # Class of executed instruction
system.cpu04.op_class::FloatMultAcc                 0      0.00%     63.86% # Class of executed instruction
system.cpu04.op_class::FloatDiv                     0      0.00%     63.86% # Class of executed instruction
system.cpu04.op_class::FloatMisc                    0      0.00%     63.86% # Class of executed instruction
system.cpu04.op_class::FloatSqrt                    0      0.00%     63.86% # Class of executed instruction
system.cpu04.op_class::SimdAdd                      0      0.00%     63.86% # Class of executed instruction
system.cpu04.op_class::SimdAddAcc                   0      0.00%     63.86% # Class of executed instruction
system.cpu04.op_class::SimdAlu                      0      0.00%     63.86% # Class of executed instruction
system.cpu04.op_class::SimdCmp                      0      0.00%     63.86% # Class of executed instruction
system.cpu04.op_class::SimdCvt                      0      0.00%     63.86% # Class of executed instruction
system.cpu04.op_class::SimdMisc                     0      0.00%     63.86% # Class of executed instruction
system.cpu04.op_class::SimdMult                     0      0.00%     63.86% # Class of executed instruction
system.cpu04.op_class::SimdMultAcc                  0      0.00%     63.86% # Class of executed instruction
system.cpu04.op_class::SimdShift                    0      0.00%     63.86% # Class of executed instruction
system.cpu04.op_class::SimdShiftAcc                 0      0.00%     63.86% # Class of executed instruction
system.cpu04.op_class::SimdSqrt                     0      0.00%     63.86% # Class of executed instruction
system.cpu04.op_class::SimdFloatAdd                 0      0.00%     63.86% # Class of executed instruction
system.cpu04.op_class::SimdFloatAlu                 0      0.00%     63.86% # Class of executed instruction
system.cpu04.op_class::SimdFloatCmp                 0      0.00%     63.86% # Class of executed instruction
system.cpu04.op_class::SimdFloatCvt                 0      0.00%     63.86% # Class of executed instruction
system.cpu04.op_class::SimdFloatDiv                 0      0.00%     63.86% # Class of executed instruction
system.cpu04.op_class::SimdFloatMisc                0      0.00%     63.86% # Class of executed instruction
system.cpu04.op_class::SimdFloatMult                0      0.00%     63.86% # Class of executed instruction
system.cpu04.op_class::SimdFloatMultAcc             0      0.00%     63.86% # Class of executed instruction
system.cpu04.op_class::SimdFloatSqrt                0      0.00%     63.86% # Class of executed instruction
system.cpu04.op_class::SimdAes                      0      0.00%     63.86% # Class of executed instruction
system.cpu04.op_class::SimdAesMix                   0      0.00%     63.86% # Class of executed instruction
system.cpu04.op_class::SimdSha1Hash                 0      0.00%     63.86% # Class of executed instruction
system.cpu04.op_class::SimdSha1Hash2                0      0.00%     63.86% # Class of executed instruction
system.cpu04.op_class::SimdSha256Hash               0      0.00%     63.86% # Class of executed instruction
system.cpu04.op_class::SimdSha256Hash2              0      0.00%     63.86% # Class of executed instruction
system.cpu04.op_class::SimdShaSigma2                0      0.00%     63.86% # Class of executed instruction
system.cpu04.op_class::SimdShaSigma3                0      0.00%     63.86% # Class of executed instruction
system.cpu04.op_class::MemRead                   1199     24.49%     88.36% # Class of executed instruction
system.cpu04.op_class::MemWrite                   558     11.40%     99.75% # Class of executed instruction
system.cpu04.op_class::FloatMemRead                 0      0.00%     99.75% # Class of executed instruction
system.cpu04.op_class::FloatMemWrite               12      0.25%    100.00% # Class of executed instruction
system.cpu04.op_class::IprAccess                    0      0.00%    100.00% # Class of executed instruction
system.cpu04.op_class::InstPrefetch                 0      0.00%    100.00% # Class of executed instruction
system.cpu04.op_class::total                     4895                       # Class of executed instruction
system.cpu04.pwrStateClkGateDist::samples            1                       # Distribution of time spent in the clock gated state
system.cpu04.pwrStateClkGateDist::mean      128447500                       # Distribution of time spent in the clock gated state
system.cpu04.pwrStateClkGateDist::1000-5e+10            1    100.00%    100.00% # Distribution of time spent in the clock gated state
system.cpu04.pwrStateClkGateDist::min_value    128447500                       # Distribution of time spent in the clock gated state
system.cpu04.pwrStateClkGateDist::max_value    128447500                       # Distribution of time spent in the clock gated state
system.cpu04.pwrStateClkGateDist::total             1                       # Distribution of time spent in the clock gated state
system.cpu04.pwrStateResidencyTicks::ON     633485000                       # Cumulative time (in ticks) in various power states
system.cpu04.pwrStateResidencyTicks::CLK_GATED    128447500                       # Cumulative time (in ticks) in various power states
system.cpu05.Branches                             923                       # Number of branches fetched
system.cpu05.committedInsts                      4884                       # Number of instructions committed
system.cpu05.committedOps                        4890                       # Number of ops (including micro ops) committed
system.cpu05.dtb.accesses                           0                       # DTB accesses
system.cpu05.dtb.hits                               0                       # DTB hits
system.cpu05.dtb.misses                             0                       # DTB misses
system.cpu05.dtb.pwrStateResidencyTicks::UNDEFINED    761932500                       # Cumulative time (in ticks) in various power states
system.cpu05.dtb.read_accesses                      0                       # DTB read accesses
system.cpu05.dtb.read_hits                          0                       # DTB read hits
system.cpu05.dtb.read_misses                        0                       # DTB read misses
system.cpu05.dtb.write_accesses                     0                       # DTB write accesses
system.cpu05.dtb.write_hits                         0                       # DTB write hits
system.cpu05.dtb.write_misses                       0                       # DTB write misses
system.cpu05.idle_fraction                   0.983245                       # Percentage of idle cycles
system.cpu05.itb.accesses                           0                       # DTB accesses
system.cpu05.itb.hits                               0                       # DTB hits
system.cpu05.itb.misses                             0                       # DTB misses
system.cpu05.itb.pwrStateResidencyTicks::UNDEFINED    761932500                       # Cumulative time (in ticks) in various power states
system.cpu05.itb.read_accesses                      0                       # DTB read accesses
system.cpu05.itb.read_hits                          0                       # DTB read hits
system.cpu05.itb.read_misses                        0                       # DTB read misses
system.cpu05.itb.write_accesses                     0                       # DTB write accesses
system.cpu05.itb.write_hits                         0                       # DTB write hits
system.cpu05.itb.write_misses                       0                       # DTB write misses
system.cpu05.not_idle_fraction               0.016755                       # Percentage of non-idle cycles
system.cpu05.numCycles                        1523865                       # number of cpu cycles simulated
system.cpu05.numPwrStateTransitions                 2                       # Number of power state transitions
system.cpu05.numWorkItemsCompleted                  0                       # number of work items this cpu completed
system.cpu05.numWorkItemsStarted                    0                       # number of work items this cpu started
system.cpu05.num_busy_cycles             25532.001966                       # Number of busy cycles
system.cpu05.num_conditional_control_insts          470                       # number of instructions that are conditional controls
system.cpu05.num_fp_alu_accesses                   12                       # Number of float alu accesses
system.cpu05.num_fp_insts                          12                       # number of float instructions
system.cpu05.num_fp_register_reads                 12                       # number of times the floating registers were read
system.cpu05.num_fp_register_writes                 0                       # number of times the floating registers were written
system.cpu05.num_func_calls                       453                       # number of times a function call or return occured
system.cpu05.num_idle_cycles             1498332.998034                       # Number of idle cycles
system.cpu05.num_int_alu_accesses                4791                       # Number of integer alu accesses
system.cpu05.num_int_insts                       4791                       # number of integer instructions
system.cpu05.num_int_register_reads              5522                       # number of times the integer registers were read
system.cpu05.num_int_register_writes             3557                       # number of times the integer registers were written
system.cpu05.num_load_insts                      1193                       # Number of load instructions
system.cpu05.num_mem_refs                        1766                       # number of memory refs
system.cpu05.num_store_insts                      573                       # Number of store instructions
system.cpu05.num_vec_alu_accesses                   0                       # Number of vector alu accesses
system.cpu05.num_vec_insts                          0                       # number of vector instructions
system.cpu05.num_vec_register_reads                 0                       # number of times the vector registers were read
system.cpu05.num_vec_register_writes                0                       # number of times the vector registers were written
system.cpu05.op_class::No_OpClass                  10      0.20%      0.20% # Class of executed instruction
system.cpu05.op_class::IntAlu                    3113     63.63%     63.84% # Class of executed instruction
system.cpu05.op_class::IntMult                      1      0.02%     63.86% # Class of executed instruction
system.cpu05.op_class::IntDiv                       2      0.04%     63.90% # Class of executed instruction
system.cpu05.op_class::FloatAdd                     0      0.00%     63.90% # Class of executed instruction
system.cpu05.op_class::FloatCmp                     0      0.00%     63.90% # Class of executed instruction
system.cpu05.op_class::FloatCvt                     0      0.00%     63.90% # Class of executed instruction
system.cpu05.op_class::FloatMult                    0      0.00%     63.90% # Class of executed instruction
system.cpu05.op_class::FloatMultAcc                 0      0.00%     63.90% # Class of executed instruction
system.cpu05.op_class::FloatDiv                     0      0.00%     63.90% # Class of executed instruction
system.cpu05.op_class::FloatMisc                    0      0.00%     63.90% # Class of executed instruction
system.cpu05.op_class::FloatSqrt                    0      0.00%     63.90% # Class of executed instruction
system.cpu05.op_class::SimdAdd                      0      0.00%     63.90% # Class of executed instruction
system.cpu05.op_class::SimdAddAcc                   0      0.00%     63.90% # Class of executed instruction
system.cpu05.op_class::SimdAlu                      0      0.00%     63.90% # Class of executed instruction
system.cpu05.op_class::SimdCmp                      0      0.00%     63.90% # Class of executed instruction
system.cpu05.op_class::SimdCvt                      0      0.00%     63.90% # Class of executed instruction
system.cpu05.op_class::SimdMisc                     0      0.00%     63.90% # Class of executed instruction
system.cpu05.op_class::SimdMult                     0      0.00%     63.90% # Class of executed instruction
system.cpu05.op_class::SimdMultAcc                  0      0.00%     63.90% # Class of executed instruction
system.cpu05.op_class::SimdShift                    0      0.00%     63.90% # Class of executed instruction
system.cpu05.op_class::SimdShiftAcc                 0      0.00%     63.90% # Class of executed instruction
system.cpu05.op_class::SimdSqrt                     0      0.00%     63.90% # Class of executed instruction
system.cpu05.op_class::SimdFloatAdd                 0      0.00%     63.90% # Class of executed instruction
system.cpu05.op_class::SimdFloatAlu                 0      0.00%     63.90% # Class of executed instruction
system.cpu05.op_class::SimdFloatCmp                 0      0.00%     63.90% # Class of executed instruction
system.cpu05.op_class::SimdFloatCvt                 0      0.00%     63.90% # Class of executed instruction
system.cpu05.op_class::SimdFloatDiv                 0      0.00%     63.90% # Class of executed instruction
system.cpu05.op_class::SimdFloatMisc                0      0.00%     63.90% # Class of executed instruction
system.cpu05.op_class::SimdFloatMult                0      0.00%     63.90% # Class of executed instruction
system.cpu05.op_class::SimdFloatMultAcc             0      0.00%     63.90% # Class of executed instruction
system.cpu05.op_class::SimdFloatSqrt                0      0.00%     63.90% # Class of executed instruction
system.cpu05.op_class::SimdAes                      0      0.00%     63.90% # Class of executed instruction
system.cpu05.op_class::SimdAesMix                   0      0.00%     63.90% # Class of executed instruction
system.cpu05.op_class::SimdSha1Hash                 0      0.00%     63.90% # Class of executed instruction
system.cpu05.op_class::SimdSha1Hash2                0      0.00%     63.90% # Class of executed instruction
system.cpu05.op_class::SimdSha256Hash               0      0.00%     63.90% # Class of executed instruction
system.cpu05.op_class::SimdSha256Hash2              0      0.00%     63.90% # Class of executed instruction
system.cpu05.op_class::SimdShaSigma2                0      0.00%     63.90% # Class of executed instruction
system.cpu05.op_class::SimdShaSigma3                0      0.00%     63.90% # Class of executed instruction
system.cpu05.op_class::MemRead                   1197     24.47%     88.37% # Class of executed instruction
system.cpu05.op_class::MemWrite                   557     11.39%     99.75% # Class of executed instruction
system.cpu05.op_class::FloatMemRead                 0      0.00%     99.75% # Class of executed instruction
system.cpu05.op_class::FloatMemWrite               12      0.25%    100.00% # Class of executed instruction
system.cpu05.op_class::IprAccess                    0      0.00%    100.00% # Class of executed instruction
system.cpu05.op_class::InstPrefetch                 0      0.00%    100.00% # Class of executed instruction
system.cpu05.op_class::total                     4892                       # Class of executed instruction
system.cpu05.pwrStateClkGateDist::samples            1                       # Distribution of time spent in the clock gated state
system.cpu05.pwrStateClkGateDist::mean      117777500                       # Distribution of time spent in the clock gated state
system.cpu05.pwrStateClkGateDist::1000-5e+10            1    100.00%    100.00% # Distribution of time spent in the clock gated state
system.cpu05.pwrStateClkGateDist::min_value    117777500                       # Distribution of time spent in the clock gated state
system.cpu05.pwrStateClkGateDist::max_value    117777500                       # Distribution of time spent in the clock gated state
system.cpu05.pwrStateClkGateDist::total             1                       # Distribution of time spent in the clock gated state
system.cpu05.pwrStateResidencyTicks::ON     644155000                       # Cumulative time (in ticks) in various power states
system.cpu05.pwrStateResidencyTicks::CLK_GATED    117777500                       # Cumulative time (in ticks) in various power states
system.cpu06.Branches                             917                       # Number of branches fetched
system.cpu06.committedInsts                      4846                       # Number of instructions committed
system.cpu06.committedOps                        4852                       # Number of ops (including micro ops) committed
system.cpu06.dtb.accesses                           0                       # DTB accesses
system.cpu06.dtb.hits                               0                       # DTB hits
system.cpu06.dtb.misses                             0                       # DTB misses
system.cpu06.dtb.pwrStateResidencyTicks::UNDEFINED    761932500                       # Cumulative time (in ticks) in various power states
system.cpu06.dtb.read_accesses                      0                       # DTB read accesses
system.cpu06.dtb.read_hits                          0                       # DTB read hits
system.cpu06.dtb.read_misses                        0                       # DTB read misses
system.cpu06.dtb.write_accesses                     0                       # DTB write accesses
system.cpu06.dtb.write_hits                         0                       # DTB write hits
system.cpu06.dtb.write_misses                       0                       # DTB write misses
system.cpu06.idle_fraction                   0.983264                       # Percentage of idle cycles
system.cpu06.itb.accesses                           0                       # DTB accesses
system.cpu06.itb.hits                               0                       # DTB hits
system.cpu06.itb.misses                             0                       # DTB misses
system.cpu06.itb.pwrStateResidencyTicks::UNDEFINED    761932500                       # Cumulative time (in ticks) in various power states
system.cpu06.itb.read_accesses                      0                       # DTB read accesses
system.cpu06.itb.read_hits                          0                       # DTB read hits
system.cpu06.itb.read_misses                        0                       # DTB read misses
system.cpu06.itb.write_accesses                     0                       # DTB write accesses
system.cpu06.itb.write_hits                         0                       # DTB write hits
system.cpu06.itb.write_misses                       0                       # DTB write misses
system.cpu06.not_idle_fraction               0.016736                       # Percentage of non-idle cycles
system.cpu06.numCycles                        1523865                       # number of cpu cycles simulated
system.cpu06.numPwrStateTransitions                 2                       # Number of power state transitions
system.cpu06.numWorkItemsCompleted                  0                       # number of work items this cpu completed
system.cpu06.numWorkItemsStarted                    0                       # number of work items this cpu started
system.cpu06.num_busy_cycles             25503.001967                       # Number of busy cycles
system.cpu06.num_conditional_control_insts          464                       # number of instructions that are conditional controls
system.cpu06.num_fp_alu_accesses                   12                       # Number of float alu accesses
system.cpu06.num_fp_insts                          12                       # number of float instructions
system.cpu06.num_fp_register_reads                 12                       # number of times the floating registers were read
system.cpu06.num_fp_register_writes                 0                       # number of times the floating registers were written
system.cpu06.num_func_calls                       453                       # number of times a function call or return occured
system.cpu06.num_idle_cycles             1498361.998033                       # Number of idle cycles
system.cpu06.num_int_alu_accesses                4750                       # Number of integer alu accesses
system.cpu06.num_int_insts                       4750                       # number of integer instructions
system.cpu06.num_int_register_reads              5479                       # number of times the integer registers were read
system.cpu06.num_int_register_writes             3527                       # number of times the integer registers were written
system.cpu06.num_load_insts                      1184                       # Number of load instructions
system.cpu06.num_mem_refs                        1753                       # number of memory refs
system.cpu06.num_store_insts                      569                       # Number of store instructions
system.cpu06.num_vec_alu_accesses                   0                       # Number of vector alu accesses
system.cpu06.num_vec_insts                          0                       # number of vector instructions
system.cpu06.num_vec_register_reads                 0                       # number of times the vector registers were read
system.cpu06.num_vec_register_writes                0                       # number of times the vector registers were written
system.cpu06.op_class::No_OpClass                  10      0.21%      0.21% # Class of executed instruction
system.cpu06.op_class::IntAlu                    3088     63.62%     63.82% # Class of executed instruction
system.cpu06.op_class::IntMult                      1      0.02%     63.84% # Class of executed instruction
system.cpu06.op_class::IntDiv                       2      0.04%     63.89% # Class of executed instruction
system.cpu06.op_class::FloatAdd                     0      0.00%     63.89% # Class of executed instruction
system.cpu06.op_class::FloatCmp                     0      0.00%     63.89% # Class of executed instruction
system.cpu06.op_class::FloatCvt                     0      0.00%     63.89% # Class of executed instruction
system.cpu06.op_class::FloatMult                    0      0.00%     63.89% # Class of executed instruction
system.cpu06.op_class::FloatMultAcc                 0      0.00%     63.89% # Class of executed instruction
system.cpu06.op_class::FloatDiv                     0      0.00%     63.89% # Class of executed instruction
system.cpu06.op_class::FloatMisc                    0      0.00%     63.89% # Class of executed instruction
system.cpu06.op_class::FloatSqrt                    0      0.00%     63.89% # Class of executed instruction
system.cpu06.op_class::SimdAdd                      0      0.00%     63.89% # Class of executed instruction
system.cpu06.op_class::SimdAddAcc                   0      0.00%     63.89% # Class of executed instruction
system.cpu06.op_class::SimdAlu                      0      0.00%     63.89% # Class of executed instruction
system.cpu06.op_class::SimdCmp                      0      0.00%     63.89% # Class of executed instruction
system.cpu06.op_class::SimdCvt                      0      0.00%     63.89% # Class of executed instruction
system.cpu06.op_class::SimdMisc                     0      0.00%     63.89% # Class of executed instruction
system.cpu06.op_class::SimdMult                     0      0.00%     63.89% # Class of executed instruction
system.cpu06.op_class::SimdMultAcc                  0      0.00%     63.89% # Class of executed instruction
system.cpu06.op_class::SimdShift                    0      0.00%     63.89% # Class of executed instruction
system.cpu06.op_class::SimdShiftAcc                 0      0.00%     63.89% # Class of executed instruction
system.cpu06.op_class::SimdSqrt                     0      0.00%     63.89% # Class of executed instruction
system.cpu06.op_class::SimdFloatAdd                 0      0.00%     63.89% # Class of executed instruction
system.cpu06.op_class::SimdFloatAlu                 0      0.00%     63.89% # Class of executed instruction
system.cpu06.op_class::SimdFloatCmp                 0      0.00%     63.89% # Class of executed instruction
system.cpu06.op_class::SimdFloatCvt                 0      0.00%     63.89% # Class of executed instruction
system.cpu06.op_class::SimdFloatDiv                 0      0.00%     63.89% # Class of executed instruction
system.cpu06.op_class::SimdFloatMisc                0      0.00%     63.89% # Class of executed instruction
system.cpu06.op_class::SimdFloatMult                0      0.00%     63.89% # Class of executed instruction
system.cpu06.op_class::SimdFloatMultAcc             0      0.00%     63.89% # Class of executed instruction
system.cpu06.op_class::SimdFloatSqrt                0      0.00%     63.89% # Class of executed instruction
system.cpu06.op_class::SimdAes                      0      0.00%     63.89% # Class of executed instruction
system.cpu06.op_class::SimdAesMix                   0      0.00%     63.89% # Class of executed instruction
system.cpu06.op_class::SimdSha1Hash                 0      0.00%     63.89% # Class of executed instruction
system.cpu06.op_class::SimdSha1Hash2                0      0.00%     63.89% # Class of executed instruction
system.cpu06.op_class::SimdSha256Hash               0      0.00%     63.89% # Class of executed instruction
system.cpu06.op_class::SimdSha256Hash2              0      0.00%     63.89% # Class of executed instruction
system.cpu06.op_class::SimdShaSigma2                0      0.00%     63.89% # Class of executed instruction
system.cpu06.op_class::SimdShaSigma3                0      0.00%     63.89% # Class of executed instruction
system.cpu06.op_class::MemRead                   1188     24.47%     88.36% # Class of executed instruction
system.cpu06.op_class::MemWrite                   553     11.39%     99.75% # Class of executed instruction
system.cpu06.op_class::FloatMemRead                 0      0.00%     99.75% # Class of executed instruction
system.cpu06.op_class::FloatMemWrite               12      0.25%    100.00% # Class of executed instruction
system.cpu06.op_class::IprAccess                    0      0.00%    100.00% # Class of executed instruction
system.cpu06.op_class::InstPrefetch                 0      0.00%    100.00% # Class of executed instruction
system.cpu06.op_class::total                     4854                       # Class of executed instruction
system.cpu06.pwrStateClkGateDist::samples            1                       # Distribution of time spent in the clock gated state
system.cpu06.pwrStateClkGateDist::mean      106330000                       # Distribution of time spent in the clock gated state
system.cpu06.pwrStateClkGateDist::1000-5e+10            1    100.00%    100.00% # Distribution of time spent in the clock gated state
system.cpu06.pwrStateClkGateDist::min_value    106330000                       # Distribution of time spent in the clock gated state
[...]
system.ruby.network.int_links39.credit_link.pwrStateResidencyTicks::UNDEFINED    761932500                       # Cumulative time (in ticks) in various power states
system.ruby.network.int_links39.network_link.pwrStateResidencyTicks::UNDEFINED    761932500                       # Cumulative time (in ticks) in various power states
system.ruby.network.int_links40.credit_link.pwrStateResidencyTicks::UNDEFINED    761932500                       # Cumulative time (in ticks) in various power states
system.ruby.network.int_links40.network_link.pwrStateResidencyTicks::UNDEFINED    761932500                       # Cumulative time (in ticks) in various power states
system.ruby.network.int_links41.credit_link.pwrStateResidencyTicks::UNDEFINED    761932500                       # Cumulative time (in ticks) in various power states
system.ruby.network.int_links41.network_link.pwrStateResidencyTicks::UNDEFINED    761932500                       # Cumulative time (in ticks) in various power states
system.ruby.network.int_links42.credit_link.pwrStateResidencyTicks::UNDEFINED    761932500                       # Cumulative time (in ticks) in various power states
system.ruby.network.int_links42.network_link.pwrStateResidencyTicks::UNDEFINED    761932500                       # Cumulative time (in ticks) in various power states
system.ruby.network.int_links43.credit_link.pwrStateResidencyTicks::UNDEFINED    761932500                       # Cumulative time (in ticks) in various power states
system.ruby.network.int_links43.network_link.pwrStateResidencyTicks::UNDEFINED    761932500                       # Cumulative time (in ticks) in various power states
system.ruby.network.int_links44.credit_link.pwrStateResidencyTicks::UNDEFINED    761932500                       # Cumulative time (in ticks) in various power states
system.ruby.network.int_links44.network_link.pwrStateResidencyTicks::UNDEFINED    761932500                       # Cumulative time (in ticks) in various power states
system.ruby.network.int_links45.credit_link.pwrStateResidencyTicks::UNDEFINED    761932500                       # Cumulative time (in ticks) in various power states
system.ruby.network.int_links45.network_link.pwrStateResidencyTicks::UNDEFINED    761932500                       # Cumulative time (in ticks) in various power states
system.ruby.network.int_links46.credit_link.pwrStateResidencyTicks::UNDEFINED    761932500                       # Cumulative time (in ticks) in various power states
system.ruby.network.int_links46.network_link.pwrStateResidencyTicks::UNDEFINED    761932500                       # Cumulative time (in ticks) in various power states
system.ruby.network.int_links47.credit_link.pwrStateResidencyTicks::UNDEFINED    761932500                       # Cumulative time (in ticks) in various power states
system.ruby.network.int_links47.network_link.pwrStateResidencyTicks::UNDEFINED    761932500                       # Cumulative time (in ticks) in various power states
system.ruby.network.netifs00.pwrStateResidencyTicks::UNDEFINED    761932500                       # Cumulative time (in ticks) in various power states
system.ruby.network.netifs01.pwrStateResidencyTicks::UNDEFINED    761932500                       # Cumulative time (in ticks) in various power states
system.ruby.network.netifs02.pwrStateResidencyTicks::UNDEFINED    761932500                       # Cumulative time (in ticks) in various power states
system.ruby.network.netifs03.pwrStateResidencyTicks::UNDEFINED    761932500                       # Cumulative time (in ticks) in various power states
system.ruby.network.netifs04.pwrStateResidencyTicks::UNDEFINED    761932500                       # Cumulative time (in ticks) in various power states
system.ruby.network.netifs05.pwrStateResidencyTicks::UNDEFINED    761932500                       # Cumulative time (in ticks) in various power states
system.ruby.network.netifs06.pwrStateResidencyTicks::UNDEFINED    761932500                       # Cumulative time (in ticks) in various power states
system.ruby.network.netifs07.pwrStateResidencyTicks::UNDEFINED    761932500                       # Cumulative time (in ticks) in various power states
system.ruby.network.netifs08.pwrStateResidencyTicks::UNDEFINED    761932500                       # Cumulative time (in ticks) in various power states
system.ruby.network.netifs09.pwrStateResidencyTicks::UNDEFINED    761932500                       # Cumulative time (in ticks) in various power states
system.ruby.network.netifs10.pwrStateResidencyTicks::UNDEFINED    761932500                       # Cumulative time (in ticks) in various power states
system.ruby.network.netifs11.pwrStateResidencyTicks::UNDEFINED    761932500                       # Cumulative time (in ticks) in various power states
system.ruby.network.netifs12.pwrStateResidencyTicks::UNDEFINED    761932500                       # Cumulative time (in ticks) in various power states
system.ruby.network.netifs13.pwrStateResidencyTicks::UNDEFINED    761932500                       # Cumulative time (in ticks) in various power states
system.ruby.network.netifs14.pwrStateResidencyTicks::UNDEFINED    761932500                       # Cumulative time (in ticks) in various power states
system.ruby.network.netifs15.pwrStateResidencyTicks::UNDEFINED    761932500                       # Cumulative time (in ticks) in various power states
system.ruby.network.netifs16.pwrStateResidencyTicks::UNDEFINED    761932500                       # Cumulative time (in ticks) in various power states
system.ruby.network.netifs17.pwrStateResidencyTicks::UNDEFINED    761932500                       # Cumulative time (in ticks) in various power states
system.ruby.network.netifs18.pwrStateResidencyTicks::UNDEFINED    761932500                       # Cumulative time (in ticks) in various power states
system.ruby.network.netifs19.pwrStateResidencyTicks::UNDEFINED    761932500                       # Cumulative time (in ticks) in various power states
system.ruby.network.netifs20.pwrStateResidencyTicks::UNDEFINED    761932500                       # Cumulative time (in ticks) in various power states
system.ruby.network.netifs21.pwrStateResidencyTicks::UNDEFINED    761932500                       # Cumulative time (in ticks) in various power states
system.ruby.network.netifs22.pwrStateResidencyTicks::UNDEFINED    761932500                       # Cumulative time (in ticks) in various power states
system.ruby.network.netifs23.pwrStateResidencyTicks::UNDEFINED    761932500                       # Cumulative time (in ticks) in various power states
system.ruby.network.netifs24.pwrStateResidencyTicks::UNDEFINED    761932500                       # Cumulative time (in ticks) in various power states
system.ruby.network.netifs25.pwrStateResidencyTicks::UNDEFINED    761932500                       # Cumulative time (in ticks) in various power states
system.ruby.network.netifs26.pwrStateResidencyTicks::UNDEFINED    761932500                       # Cumulative time (in ticks) in various power states
system.ruby.network.netifs27.pwrStateResidencyTicks::UNDEFINED    761932500                       # Cumulative time (in ticks) in various power states
system.ruby.network.netifs28.pwrStateResidencyTicks::UNDEFINED    761932500                       # Cumulative time (in ticks) in various power states
system.ruby.network.netifs29.pwrStateResidencyTicks::UNDEFINED    761932500                       # Cumulative time (in ticks) in various power states
system.ruby.network.netifs30.pwrStateResidencyTicks::UNDEFINED    761932500                       # Cumulative time (in ticks) in various power states
system.ruby.network.netifs31.pwrStateResidencyTicks::UNDEFINED    761932500                       # Cumulative time (in ticks) in various power states
system.ruby.network.netifs32.pwrStateResidencyTicks::UNDEFINED    761932500                       # Cumulative time (in ticks) in various power states
system.ruby.network.netifs33.pwrStateResidencyTicks::UNDEFINED    761932500                       # Cumulative time (in ticks) in various power states
system.ruby.network.netifs34.pwrStateResidencyTicks::UNDEFINED    761932500                       # Cumulative time (in ticks) in various power states
system.ruby.network.netifs35.pwrStateResidencyTicks::UNDEFINED    761932500                       # Cumulative time (in ticks) in various power states
system.ruby.network.packet_network_latency |      535825                       |      566930                       |      142682                      
system.ruby.network.packet_queueing_latency |      177436                       |       31318                       |        6429                      
system.ruby.network.packets_injected     |       18555     42.77%     42.77% |       18732     43.18%     85.96% |        6092     14.04%    100.00%
system.ruby.network.packets_injected::total        43379                      
system.ruby.network.packets_received     |       18555     42.78%     42.78% |       18731     43.18%     85.96% |        6091     14.04%    100.00%
system.ruby.network.packets_received::total        43377                      
system.ruby.network.pwrStateResidencyTicks::UNDEFINED    761932500                       # Cumulative time (in ticks) in various power states
system.ruby.network.routers00.buffer_reads        88356                      
system.ruby.network.routers00.buffer_writes        88356                      
system.ruby.network.routers00.crossbar_activity        88356                      
system.ruby.network.routers00.pwrStateResidencyTicks::UNDEFINED    761932500                       # Cumulative time (in ticks) in various power states
system.ruby.network.routers00.sw_input_arbiter_activity        88368                      
system.ruby.network.routers00.sw_output_arbiter_activity        88356                      
system.ruby.network.routers01.buffer_reads        38590                      
system.ruby.network.routers01.buffer_writes        38590                      
system.ruby.network.routers01.crossbar_activity        38590                      
system.ruby.network.routers01.pwrStateResidencyTicks::UNDEFINED    761932500                       # Cumulative time (in ticks) in various power states
system.ruby.network.routers01.sw_input_arbiter_activity        38607                      
system.ruby.network.routers01.sw_output_arbiter_activity        38590                      
system.ruby.network.routers02.buffer_reads        25797                      
system.ruby.network.routers02.buffer_writes        25797                      
system.ruby.network.routers02.crossbar_activity        25797                      
system.ruby.network.routers02.pwrStateResidencyTicks::UNDEFINED    761932500                       # Cumulative time (in ticks) in various power states
system.ruby.network.routers02.sw_input_arbiter_activity        25811                      
system.ruby.network.routers02.sw_output_arbiter_activity        25797                      
system.ruby.network.routers03.buffer_reads        15602                      
system.ruby.network.routers03.buffer_writes        15602                      
system.ruby.network.routers03.crossbar_activity        15602                      
system.ruby.network.routers03.pwrStateResidencyTicks::UNDEFINED    761932500                       # Cumulative time (in ticks) in various power states
system.ruby.network.routers03.sw_input_arbiter_activity        15607                      
system.ruby.network.routers03.sw_output_arbiter_activity        15602                      
system.ruby.network.routers04.buffer_reads        49709                      
system.ruby.network.routers04.buffer_writes        49709                      
system.ruby.network.routers04.crossbar_activity        49707                      
system.ruby.network.routers04.pwrStateResidencyTicks::UNDEFINED    761932500                       # Cumulative time (in ticks) in various power states
system.ruby.network.routers04.sw_input_arbiter_activity        49715                      
system.ruby.network.routers04.sw_output_arbiter_activity        49707                      
system.ruby.network.routers05.buffer_reads        20218                      
system.ruby.network.routers05.buffer_writes        20218                      
system.ruby.network.routers05.crossbar_activity        20218                      
system.ruby.network.routers05.pwrStateResidencyTicks::UNDEFINED    761932500                       # Cumulative time (in ticks) in various power states
system.ruby.network.routers05.sw_input_arbiter_activity        20224                      
system.ruby.network.routers05.sw_output_arbiter_activity        20218                      
system.ruby.network.routers06.buffer_reads        16539                      
system.ruby.network.routers06.buffer_writes        16539                      
system.ruby.network.routers06.crossbar_activity        16539                      
system.ruby.network.routers06.pwrStateResidencyTicks::UNDEFINED    761932500                       # Cumulative time (in ticks) in various power states
system.ruby.network.routers06.sw_input_arbiter_activity        16563                      
system.ruby.network.routers06.sw_output_arbiter_activity        16539                      
system.ruby.network.routers07.buffer_reads        11497                      
system.ruby.network.routers07.buffer_writes        11497                      
system.ruby.network.routers07.crossbar_activity        11497                      
system.ruby.network.routers07.pwrStateResidencyTicks::UNDEFINED    761932500                       # Cumulative time (in ticks) in various power states
system.ruby.network.routers07.sw_input_arbiter_activity        11509                      
system.ruby.network.routers07.sw_output_arbiter_activity        11497                      
system.ruby.network.routers08.buffer_reads        32298                      
system.ruby.network.routers08.buffer_writes        32298                      
system.ruby.network.routers08.crossbar_activity        32298                      
system.ruby.network.routers08.pwrStateResidencyTicks::UNDEFINED    761932500                       # Cumulative time (in ticks) in various power states
system.ruby.network.routers08.sw_input_arbiter_activity        32307                      
system.ruby.network.routers08.sw_output_arbiter_activity        32298                      
system.ruby.network.routers09.buffer_reads        15932                      
system.ruby.network.routers09.buffer_writes        15932                      
system.ruby.network.routers09.crossbar_activity        15932                      
system.ruby.network.routers09.pwrStateResidencyTicks::UNDEFINED    761932500                       # Cumulative time (in ticks) in various power states
system.ruby.network.routers09.sw_input_arbiter_activity        15940                      
system.ruby.network.routers09.sw_output_arbiter_activity        15932                      
system.ruby.network.routers10.buffer_reads        15233                      
system.ruby.network.routers10.buffer_writes        15233                      
system.ruby.network.routers10.crossbar_activity        15233                      
system.ruby.network.routers10.pwrStateResidencyTicks::UNDEFINED    761932500                       # Cumulative time (in ticks) in various power states
system.ruby.network.routers10.sw_input_arbiter_activity        15237                      
system.ruby.network.routers10.sw_output_arbiter_activity        15233                      
system.ruby.network.routers11.buffer_reads        10531                      
system.ruby.network.routers11.buffer_writes        10531                      
system.ruby.network.routers11.crossbar_activity        10531                      
system.ruby.network.routers11.pwrStateResidencyTicks::UNDEFINED    761932500                       # Cumulative time (in ticks) in various power states
system.ruby.network.routers11.sw_input_arbiter_activity        10543                      
system.ruby.network.routers11.sw_output_arbiter_activity        10531                      
system.ruby.network.routers12.buffer_reads        21668                      
system.ruby.network.routers12.buffer_writes        21668                      
system.ruby.network.routers12.crossbar_activity        21668                      
system.ruby.network.routers12.pwrStateResidencyTicks::UNDEFINED    761932500                       # Cumulative time (in ticks) in various power states
system.ruby.network.routers12.sw_input_arbiter_activity        21669                      
system.ruby.network.routers12.sw_output_arbiter_activity        21668                      
system.ruby.network.routers13.buffer_reads        17519                      
system.ruby.network.routers13.buffer_writes        17519                      
system.ruby.network.routers13.crossbar_activity        17519                      
system.ruby.network.routers13.pwrStateResidencyTicks::UNDEFINED    761932500                       # Cumulative time (in ticks) in various power states
system.ruby.network.routers13.sw_input_arbiter_activity        17526                      
system.ruby.network.routers13.sw_output_arbiter_activity        17519                      
system.ruby.network.routers14.buffer_reads        14625                      
system.ruby.network.routers14.buffer_writes        14625                      
system.ruby.network.routers14.crossbar_activity        14625                      
system.ruby.network.routers14.pwrStateResidencyTicks::UNDEFINED    761932500                       # Cumulative time (in ticks) in various power states
system.ruby.network.routers14.sw_input_arbiter_activity        14631                      
system.ruby.network.routers14.sw_output_arbiter_activity        14625                      
system.ruby.network.routers15.buffer_reads        10745                      
system.ruby.network.routers15.buffer_writes        10745                      
system.ruby.network.routers15.crossbar_activity        10745                      
system.ruby.network.routers15.pwrStateResidencyTicks::UNDEFINED    761932500                       # Cumulative time (in ticks) in various power states
system.ruby.network.routers15.sw_input_arbiter_activity        10753                      
system.ruby.network.routers15.sw_output_arbiter_activity        10745                      
system.ruby.outstanding_req_hist_seqr::bucket_size            1                      
system.ruby.outstanding_req_hist_seqr::max_bucket            9                      
system.ruby.outstanding_req_hist_seqr::samples       273643                      
system.ruby.outstanding_req_hist_seqr::mean            1                      
system.ruby.outstanding_req_hist_seqr::gmean            1                      
system.ruby.outstanding_req_hist_seqr    |           0      0.00%      0.00% |      273643    100.00%    100.00% |           0      0.00%    100.00% |           0      0.00%    100.00% |           0      0.00%    100.00% |           0      0.00%    100.00% |           0      0.00%    100.00% |           0      0.00%    100.00% |           0      0.00%    100.00% |           0      0.00%    100.00%
system.ruby.outstanding_req_hist_seqr::total       273643                      
system.ruby.pwrStateResidencyTicks::UNDEFINED    761932500                       # Cumulative time (in ticks) in various power states
system.sys_port_proxy.pwrStateResidencyTicks::UNDEFINED    761932500                       # Cumulative time (in ticks) in various power states
system.voltage_domain.voltage                       1                       # Voltage in Volts

---------- End Simulation Statistics   ----------
