
---------- Begin Simulation Statistics ----------
final_tick                                  565144000                       # Number of ticks from beginning of simulation (restored from checkpoints and never reset)
host_inst_rate                                  27488                       # Simulator instruction rate (inst/s)
host_mem_usage                                5159720                       # Number of bytes of host memory used
host_op_rate                                    27575                       # Simulator op (including micro ops) rate (op/s)
host_seconds                                     4.34                       # Real time elapsed on the host
host_tick_rate                              130281647                       # Simulator tick rate (ticks/s)
sim_freq                                 1000000000000                       # Frequency of simulated ticks
sim_insts                                      119235                       # Number of instructions simulated
sim_ops                                        119617                       # Number of ops (including micro ops) simulated
sim_seconds                                  0.000565                       # Number of seconds simulated
sim_ticks                                   565144000                       # Number of ticks simulated
system.clk_domain.clock                          1000                       # Clock period in ticks
system.cpu00.Branches                           22352                       # Number of branches fetched
system.cpu00.committedInsts                    100000                       # Number of instructions committed
system.cpu00.committedOps                      100293                       # Number of ops (including micro ops) committed
system.cpu00.dtb.accesses                           0                       # DTB accesses
system.cpu00.dtb.hits                               0                       # DTB hits
system.cpu00.dtb.misses                             0                       # DTB misses
system.cpu00.dtb.pwrStateResidencyTicks::UNDEFINED    565144000                       # Cumulative time (in ticks) in various power states
system.cpu00.dtb.read_accesses                      0                       # DTB read accesses
system.cpu00.dtb.read_hits                          0                       # DTB read hits
system.cpu00.dtb.read_misses                        0                       # DTB read misses
system.cpu00.dtb.write_accesses                     0                       # DTB write accesses
system.cpu00.dtb.write_hits                         0                       # DTB write hits
system.cpu00.dtb.write_misses                       0                       # DTB write misses
system.cpu00.idle_fraction                   0.004495                       # Percentage of idle cycles
system.cpu00.itb.accesses                           0                       # DTB accesses
system.cpu00.itb.hits                               0                       # DTB hits
system.cpu00.itb.misses                             0                       # DTB misses
system.cpu00.itb.pwrStateResidencyTicks::UNDEFINED    565144000                       # Cumulative time (in ticks) in various power states
system.cpu00.itb.read_accesses                      0                       # DTB read accesses
system.cpu00.itb.read_hits                          0                       # DTB read hits
system.cpu00.itb.read_misses                        0                       # DTB read misses
system.cpu00.itb.write_accesses                     0                       # DTB write accesses
system.cpu00.itb.write_hits                         0                       # DTB write hits
system.cpu00.itb.write_misses                       0                       # DTB write misses
system.cpu00.not_idle_fraction               0.995505                       # Percentage of non-idle cycles
system.cpu00.numCycles                        1130288                       # number of cpu cycles simulated
system.cpu00.numPwrStateTransitions                 2                       # Number of power state transitions
system.cpu00.numWorkItemsCompleted                  0                       # number of work items this cpu completed
system.cpu00.numWorkItemsStarted                    0                       # number of work items this cpu started
system.cpu00.num_busy_cycles             1125207.000009                       # Number of busy cycles
system.cpu00.num_conditional_control_insts        15940                       # number of instructions that are conditional controls
system.cpu00.num_fp_alu_accesses                   12                       # Number of float alu accesses
system.cpu00.num_fp_insts                          12                       # number of float instructions
system.cpu00.num_fp_register_reads                 12                       # number of times the floating registers were read
system.cpu00.num_fp_register_writes                 0                       # number of times the floating registers were written
system.cpu00.num_func_calls                      6412                       # number of times a function call or return occured
system.cpu00.num_idle_cycles              5080.999991                       # Number of idle cycles
system.cpu00.num_int_alu_accesses               98836                       # Number of integer alu accesses
system.cpu00.num_int_insts                      98836                       # number of integer instructions
system.cpu00.num_int_register_reads            120856                       # number of times the integer registers were read
system.cpu00.num_int_register_writes            64472                       # number of times the integer registers were written
system.cpu00.num_load_insts                     20286                       # Number of load instructions
system.cpu00.num_mem_refs                       36545                       # number of memory refs
system.cpu00.num_store_insts                    16259                       # Number of store instructions
system.cpu00.num_vec_alu_accesses                   0                       # Number of vector alu accesses
system.cpu00.num_vec_insts                          0                       # number of vector instructions
system.cpu00.num_vec_register_reads                 0                       # number of times the vector registers were read
system.cpu00.num_vec_register_writes                0                       # number of times the vector registers were written
system.cpu00.op_class::No_OpClass                 859      0.86%      0.86% # Class of executed instruction
system.cpu00.op_class::IntAlu                   62925     62.70%     63.55% # Class of executed instruction
system.cpu00.op_class::IntMult                     30      0.03%     63.58% # Class of executed instruction
system.cpu00.op_class::IntDiv                       6      0.01%     63.59% # Class of executed instruction
system.cpu00.op_class::FloatAdd                     0      0.00%     63.59% # Class of executed instruction
system.cpu00.op_class::FloatCmp                     0      0.00%     63.59% # Class of executed instruction
system.cpu00.op_class::FloatCvt                     0      0.00%     63.59% # Class of executed instruction
system.cpu00.op_class::FloatMult                    0      0.00%     63.59% # Class of executed instruction
system.cpu00.op_class::FloatMultAcc                 0      0.00%     63.59% # Class of executed instruction
system.cpu00.op_class::FloatDiv                     0      0.00%     63.59% # Class of executed instruction
system.cpu00.op_class::FloatMisc                    0      0.00%     63.59% # Class of executed instruction
system.cpu00.op_class::FloatSqrt                    0      0.00%     63.59% # Class of executed instruction
system.cpu00.op_class::SimdAdd                      0      0.00%     63.59% # Class of executed instruction
system.cpu00.op_class::SimdAddAcc                   0      0.00%     63.59% # Class of executed instruction
system.cpu00.op_class::SimdAlu                      0      0.00%     63.59% # Class of executed instruction
system.cpu00.op_class::SimdCmp                      0      0.00%     63.59% # Class of executed instruction
system.cpu00.op_class::SimdCvt                      0      0.00%     63.59% # Class of executed instruction
system.cpu00.op_class::SimdMisc                     0      0.00%     63.59% # Class of executed instruction
system.cpu00.op_class::SimdMult                     0      0.00%     63.59% # Class of executed instruction
system.cpu00.op_class::SimdMultAcc                  0      0.00%     63.59% # Class of executed instruction
system.cpu00.op_class::SimdShift                    0      0.00%     63.59% # Class of executed instruction
system.cpu00.op_class::SimdShiftAcc                 0      0.00%     63.59% # Class of executed instruction
system.cpu00.op_class::SimdSqrt                     0      0.00%     63.59% # Class of executed instruction
system.cpu00.op_class::SimdFloatAdd                 0      0.00%     63.59% # Class of executed instruction
system.cpu00.op_class::SimdFloatAlu                 0      0.00%     63.59% # Class of executed instruction
system.cpu00.op_class::SimdFloatCmp                 0      0.00%     63.59% # Class of executed instruction
system.cpu00.op_class::SimdFloatCvt                 0      0.00%     63.59% # Class of executed instruction
system.cpu00.op_class::SimdFloatDiv                 0      0.00%     63.59% # Class of executed instruction
system.cpu00.op_class::SimdFloatMisc                0      0.00%     63.59% # Class of executed instruction
system.cpu00.op_class::SimdFloatMult                0      0.00%     63.59% # Class of executed instruction
system.cpu00.op_class::SimdFloatMultAcc             0      0.00%     63.59% # Class of executed instruction
system.cpu00.op_class::SimdFloatSqrt                0      0.00%     63.59% # Class of executed instruction
system.cpu00.op_class::SimdAes                      0      0.00%     63.59% # Class of executed instruction
system.cpu00.op_class::SimdAesMix                   0      0.00%     63.59% # Class of executed instruction
system.cpu00.op_class::SimdSha1Hash                 0      0.00%     63.59% # Class of executed instruction
system.cpu00.op_class::SimdSha1Hash2                0      0.00%     63.59% # Class of executed instruction
system.cpu00.op_class::SimdSha256Hash               0      0.00%     63.59% # Class of executed instruction
system.cpu00.op_class::SimdSha256Hash2              0      0.00%     63.59% # Class of executed instruction
system.cpu00.op_class::SimdShaSigma2                0      0.00%     63.59% # Class of executed instruction
system.cpu00.op_class::SimdShaSigma3                0      0.00%     63.59% # Class of executed instruction
system.cpu00.op_class::MemRead                  20571     20.50%     84.08% # Class of executed instruction
system.cpu00.op_class::MemWrite                 15962     15.90%     99.99% # Class of executed instruction
system.cpu00.op_class::FloatMemRead                 0      0.00%     99.99% # Class of executed instruction
system.cpu00.op_class::FloatMemWrite               12      0.01%    100.00% # Class of executed instruction
system.cpu00.op_class::IprAccess                    0      0.00%    100.00% # Class of executed instruction
system.cpu00.op_class::InstPrefetch                 0      0.00%    100.00% # Class of executed instruction
system.cpu00.op_class::total                   100365                       # Class of executed instruction
system.cpu00.pwrStateClkGateDist::samples            1                       # Distribution of time spent in the clock gated state
system.cpu00.pwrStateClkGateDist::mean        2540500                       # Distribution of time spent in the clock gated state
system.cpu00.pwrStateClkGateDist::1000-5e+10            1    100.00%    100.00% # Distribution of time spent in the clock gated state
system.cpu00.pwrStateClkGateDist::min_value      2540500                       # Distribution of time spent in the clock gated state
system.cpu00.pwrStateClkGateDist::max_value      2540500                       # Distribution of time spent in the clock gated state
system.cpu00.pwrStateClkGateDist::total             1                       # Distribution of time spent in the clock gated state
system.cpu00.pwrStateResidencyTicks::ON     562603500                       # Cumulative time (in ticks) in various power states
system.cpu00.pwrStateResidencyTicks::CLK_GATED      2540500                       # Cumulative time (in ticks) in various power states
system.cpu00.workload.numSyscalls                  71                       # Number of system calls
system.cpu01.Branches                             241                       # Number of branches fetched
system.cpu01.committedInsts                      1256                       # Number of instructions committed
system.cpu01.committedOps                        1262                       # Number of ops (including micro ops) committed
system.cpu01.dtb.accesses                           0                       # DTB accesses
system.cpu01.dtb.hits                               0                       # DTB hits
system.cpu01.dtb.misses                             0                       # DTB misses
system.cpu01.dtb.pwrStateResidencyTicks::UNDEFINED    565144000                       # Cumulative time (in ticks) in various power states
system.cpu01.dtb.read_accesses                      0                       # DTB read accesses
system.cpu01.dtb.read_hits                          0                       # DTB read hits
system.cpu01.dtb.read_misses                        0                       # DTB read misses
system.cpu01.dtb.write_accesses                     0                       # DTB write accesses
system.cpu01.dtb.write_hits                         0                       # DTB write hits
system.cpu01.dtb.write_misses                       0                       # DTB write misses
system.cpu01.idle_fraction                   0.977006                       # Percentage of idle cycles
system.cpu01.itb.accesses                           0                       # DTB accesses
system.cpu01.itb.hits                               0                       # DTB hits
system.cpu01.itb.misses                             0                       # DTB misses
system.cpu01.itb.pwrStateResidencyTicks::UNDEFINED    565144000                       # Cumulative time (in ticks) in various power states
system.cpu01.itb.read_accesses                      0                       # DTB read accesses
system.cpu01.itb.read_hits                          0                       # DTB read hits
system.cpu01.itb.read_misses                        0                       # DTB read misses
system.cpu01.itb.write_accesses                     0                       # DTB write accesses
system.cpu01.itb.write_hits                         0                       # DTB write hits
system.cpu01.itb.write_misses                       0                       # DTB write misses
system.cpu01.not_idle_fraction               0.022994                       # Percentage of non-idle cycles
system.cpu01.numCycles                        1130173                       # number of cpu cycles simulated
system.cpu01.numPwrStateTransitions                 2                       # Number of power state transitions
system.cpu01.numWorkItemsCompleted                  0                       # number of work items this cpu completed
system.cpu01.numWorkItemsStarted                    0                       # number of work items this cpu started
system.cpu01.num_busy_cycles             25987.357628                       # Number of busy cycles
system.cpu01.num_conditional_control_insts          126                       # number of instructions that are conditional controls
system.cpu01.num_fp_alu_accesses                   12                       # Number of float alu accesses
system.cpu01.num_fp_insts                          12                       # number of float instructions
system.cpu01.num_fp_register_reads                 12                       # number of times the floating registers were read
system.cpu01.num_fp_register_writes                 0                       # number of times the floating registers were written
system.cpu01.num_func_calls                       115                       # number of times a function call or return occured
system.cpu01.num_idle_cycles             1104185.642372                       # Number of idle cycles
system.cpu01.num_int_alu_accesses                1237                       # Number of integer alu accesses
system.cpu01.num_int_insts                       1237                       # number of integer instructions
system.cpu01.num_int_register_reads              1440                       # number of times the integer registers were read
system.cpu01.num_int_register_writes              875                       # number of times the integer registers were written
system.cpu01.num_load_insts                       289                       # Number of load instructions
system.cpu01.num_mem_refs                         485                       # number of memory refs
system.cpu01.num_store_insts                      196                       # Number of store instructions
system.cpu01.num_vec_alu_accesses                   0                       # Number of vector alu accesses
system.cpu01.num_vec_insts                          0                       # number of vector instructions
system.cpu01.num_vec_register_reads                 0                       # number of times the vector registers were read
system.cpu01.num_vec_register_writes                0                       # number of times the vector registers were written
system.cpu01.op_class::No_OpClass                  10      0.79%      0.79% # Class of executed instruction
system.cpu01.op_class::IntAlu                     766     60.60%     61.39% # Class of executed instruction
system.cpu01.op_class::IntMult                      1      0.08%     61.47% # Class of executed instruction
system.cpu01.op_class::IntDiv                       2      0.16%     61.63% # Class of executed instruction
system.cpu01.op_class::FloatAdd                     0      0.00%     61.63% # Class of executed instruction
system.cpu01.op_class::FloatCmp                     0      0.00%     61.63% # Class of executed instruction
system.cpu01.op_class::FloatCvt                     0      0.00%     61.63% # Class of executed instruction
system.cpu01.op_class::FloatMult                    0      0.00%     61.63% # Class of executed instruction
system.cpu01.op_class::FloatMultAcc                 0      0.00%     61.63% # Class of executed instruction
system.cpu01.op_class::FloatDiv                     0      0.00%     61.63% # Class of executed instruction
system.cpu01.op_class::FloatMisc                    0      0.00%     61.63% # Class of executed instruction
system.cpu01.op_class::FloatSqrt                    0      0.00%     61.63% # Class of executed instruction
system.cpu01.op_class::SimdAdd                      0      0.00%     61.63% # Class of executed instruction
system.cpu01.op_class::SimdAddAcc                   0      0.00%     61.63% # Class of executed instruction
system.cpu01.op_class::SimdAlu                      0      0.00%     61.63% # Class of executed instruction
system.cpu01.op_class::SimdCmp                      0      0.00%     61.63% # Class of executed instruction
system.cpu01.op_class::SimdCvt                      0      0.00%     61.63% # Class of executed instruction
system.cpu01.op_class::SimdMisc                     0      0.00%     61.63% # Class of executed instruction
system.cpu01.op_class::SimdMult                     0      0.00%     61.63% # Class of executed instruction
system.cpu01.op_class::SimdMultAcc                  0      0.00%     61.63% # Class of executed instruction
system.cpu01.op_class::SimdShift                    0      0.00%     61.63% # Class of executed instruction
system.cpu01.op_class::SimdShiftAcc                 0      0.00%     61.63% # Class of executed instruction
system.cpu01.op_class::SimdSqrt                     0      0.00%     61.63% # Class of executed instruction
system.cpu01.op_class::SimdFloatAdd                 0      0.00%     61.63% # Class of executed instruction
system.cpu01.op_class::SimdFloatAlu                 0      0.00%     61.63% # Class of executed instruction
system.cpu01.op_class::SimdFloatCmp                 0      0.00%     61.63% # Class of executed instruction
system.cpu01.op_class::SimdFloatCvt                 0      0.00%     61.63% # Class of executed instruction
system.cpu01.op_class::SimdFloatDiv                 0      0.00%     61.63% # Class of executed instruction
system.cpu01.op_class::SimdFloatMisc                0      0.00%     61.63% # Class of executed instruction
system.cpu01.op_class::SimdFloatMult                0      0.00%     61.63% # Class of executed instruction
system.cpu01.op_class::SimdFloatMultAcc             0      0.00%     61.63% # Class of executed instruction
system.cpu01.op_class::SimdFloatSqrt                0      0.00%     61.63% # Class of executed instruction
system.cpu01.op_class::SimdAes                      0      0.00%     61.63% # Class of executed instruction
system.cpu01.op_class::SimdAesMix                   0      0.00%     61.63% # Class of executed instruction
system.cpu01.op_class::SimdSha1Hash                 0      0.00%     61.63% # Class of executed instruction
system.cpu01.op_class::SimdSha1Hash2                0      0.00%     61.63% # Class of executed instruction
system.cpu01.op_class::SimdSha256Hash               0      0.00%     61.63% # Class of executed instruction
system.cpu01.op_class::SimdSha256Hash2              0      0.00%     61.63% # Class of executed instruction
system.cpu01.op_class::SimdShaSigma2                0      0.00%     61.63% # Class of executed instruction
system.cpu01.op_class::SimdShaSigma3                0      0.00%     61.63% # Class of executed instruction
system.cpu01.op_class::MemRead                    293     23.18%     84.81% # Class of executed instruction
system.cpu01.op_class::MemWrite                   180     14.24%     99.05% # Class of executed instruction
system.cpu01.op_class::FloatMemRead                 0      0.00%     99.05% # Class of executed instruction
system.cpu01.op_class::FloatMemWrite               12      0.95%    100.00% # Class of executed instruction
system.cpu01.op_class::IprAccess                    0      0.00%    100.00% # Class of executed instruction
system.cpu01.op_class::InstPrefetch                 0      0.00%    100.00% # Class of executed instruction
system.cpu01.op_class::total                     1264                       # Class of executed instruction
system.cpu01.pwrStateClkGateDist::samples            1                       # Distribution of time spent in the clock gated state
system.cpu01.pwrStateClkGateDist::mean      112376500                       # Distribution of time spent in the clock gated state
system.cpu01.pwrStateClkGateDist::1000-5e+10            1    100.00%    100.00% # Distribution of time spent in the clock gated state
system.cpu01.pwrStateClkGateDist::min_value    112376500                       # Distribution of time spent in the clock gated state
system.cpu01.pwrStateClkGateDist::max_value    112376500                       # Distribution of time spent in the clock gated state
system.cpu01.pwrStateClkGateDist::total             1                       # Distribution of time spent in the clock gated state
system.cpu01.pwrStateResidencyTicks::ON     452767500                       # Cumulative time (in ticks) in various power states
system.cpu01.pwrStateResidencyTicks::CLK_GATED    112376500                       # Cumulative time (in ticks) in various power states
system.cpu02.Branches                             259                       # Number of branches fetched
system.cpu02.committedInsts                      1343                       # Number of instructions committed
system.cpu02.committedOps                        1349                       # Number of ops (including micro ops) committed
system.cpu02.dtb.accesses                           0                       # DTB accesses
system.cpu02.dtb.hits                               0                       # DTB hits
system.cpu02.dtb.misses                             0                       # DTB misses
system.cpu02.dtb.pwrStateResidencyTicks::UNDEFINED    565144000                       # Cumulative time (in ticks) in various power states
system.cpu02.dtb.read_accesses                      0                       # DTB read accesses
system.cpu02.dtb.read_hits                          0                       # DTB read hits
system.cpu02.dtb.read_misses                        0                       # DTB read misses
system.cpu02.dtb.write_accesses                     0                       # DTB write accesses
system.cpu02.dtb.write_hits                         0                       # DTB write hits
system.cpu02.dtb.write_misses                       0                       # DTB write misses
system.cpu02.idle_fraction                   0.980694                       # Percentage of idle cycles
system.cpu02.itb.accesses                           0                       # DTB accesses
system.cpu02.itb.hits                               0                       # DTB hits
system.cpu02.itb.misses                             0                       # DTB misses
system.cpu02.itb.pwrStateResidencyTicks::UNDEFINED    565144000                       # Cumulative time (in ticks) in various power states
system.cpu02.itb.read_accesses                      0                       # DTB read accesses
system.cpu02.itb.read_hits                          0                       # DTB read hits
system.cpu02.itb.read_misses                        0                       # DTB read misses
system.cpu02.itb.write_accesses                     0                       # DTB write accesses
system.cpu02.itb.write_hits                         0                       # DTB write hits
system.cpu02.itb.write_misses                       0                       # DTB write misses
system.cpu02.not_idle_fraction               0.019306                       # Percentage of non-idle cycles
system.cpu02.numCycles                        1130287                       # number of cpu cycles simulated
system.cpu02.numPwrStateTransitions                 2                       # Number of power state transitions
system.cpu02.numWorkItemsCompleted                  0                       # number of work items this cpu completed
system.cpu02.numWorkItemsStarted                    0                       # number of work items this cpu started
system.cpu02.num_busy_cycles             21820.982656                       # Number of busy cycles
system.cpu02.num_conditional_control_insts          136                       # number of instructions that are conditional controls
system.cpu02.num_fp_alu_accesses                   12                       # Number of float alu accesses
system.cpu02.num_fp_insts                          12                       # number of float instructions
system.cpu02.num_fp_register_reads                 12                       # number of times the floating registers were read
system.cpu02.num_fp_register_writes                 0                       # number of times the floating registers were written
system.cpu02.num_func_calls                       123                       # number of times a function call or return occured
system.cpu02.num_idle_cycles             1108466.017344                       # Number of idle cycles
system.cpu02.num_int_alu_accesses                1321                       # Number of integer alu accesses
system.cpu02.num_int_insts                       1321                       # number of integer instructions
system.cpu02.num_int_register_reads              1539                       # number of times the integer registers were read
system.cpu02.num_int_register_writes              937                       # number of times the integer registers were written
system.cpu02.num_load_insts                       308                       # Number of load instructions
system.cpu02.num_mem_refs                         513                       # number of memory refs
system.cpu02.num_store_insts                      205                       # Number of store instructions
system.cpu02.num_vec_alu_accesses                   0                       # Number of vector alu accesses
system.cpu02.num_vec_insts                          0                       # number of vector instructions
system.cpu02.num_vec_register_reads                 0                       # number of times the vector registers were read
system.cpu02.num_vec_register_writes                0                       # number of times the vector registers were written
system.cpu02.op_class::No_OpClass                  10      0.74%      0.74% # Class of executed instruction
system.cpu02.op_class::IntAlu                     825     61.07%     61.81% # Class of executed instruction
system.cpu02.op_class::IntMult                      1      0.07%     61.88% # Class of executed instruction
system.cpu02.op_class::IntDiv                       2      0.15%     62.03% # Class of executed instruction
system.cpu02.op_class::FloatAdd                     0      0.00%     62.03% # Class of executed instruction
system.cpu02.op_class::FloatCmp                     0      0.00%     62.03% # Class of executed instruction
system.cpu02.op_class::FloatCvt                     0      0.00%     62.03% # Class of executed instruction
system.cpu02.op_class::FloatMult                    0      0.00%     62.03% # Class of executed instruction
system.cpu02.op_class::FloatMultAcc                 0      0.00%     62.03% # Class of executed instruction
system.cpu02.op_class::FloatDiv                     0      0.00%     62.03% # Class of executed instruction
system.cpu02.op_class::FloatMisc                    0      0.00%     62.03% # Class of executed instruction
system.cpu02.op_class::FloatSqrt                    0      0.00%     62.03% # Class of executed instruction
system.cpu02.op_class::SimdAdd                      0      0.00%     62.03% # Class of executed instruction
system.cpu02.op_class::SimdAddAcc                   0      0.00%     62.03% # Class of executed instruction
system.cpu02.op_class::SimdAlu                      0      0.00%     62.03% # Class of executed instruction
system.cpu02.op_class::SimdCmp                      0      0.00%     62.03% # Class of executed instruction
system.cpu02.op_class::SimdCvt                      0      0.00%     62.03% # Class of executed instruction
system.cpu02.op_class::SimdMisc                     0      0.00%     62.03% # Class of executed instruction
system.cpu02.op_class::SimdMult                     0      0.00%     62.03% # Class of executed instruction
system.cpu02.op_class::SimdMultAcc                  0      0.00%     62.03% # Class of executed instruction
system.cpu02.op_class::SimdShift                    0      0.00%     62.03% # Class of executed instruction
system.cpu02.op_class::SimdShiftAcc                 0      0.00%     62.03% # Class of executed instruction
system.cpu02.op_class::SimdSqrt                     0      0.00%     62.03% # Class of executed instruction
system.cpu02.op_class::SimdFloatAdd                 0      0.00%     62.03% # Class of executed instruction
system.cpu02.op_class::SimdFloatAlu                 0      0.00%     62.03% # Class of executed instruction
system.cpu02.op_class::SimdFloatCmp                 0      0.00%     62.03% # Class of executed instruction
system.cpu02.op_class::SimdFloatCvt                 0      0.00%     62.03% # Class of executed instruction
system.cpu02.op_class::SimdFloatDiv                 0      0.00%     62.03% # Class of executed instruction
system.cpu02.op_class::SimdFloatMisc                0      0.00%     62.03% # Class of executed instruction
system.cpu02.op_class::SimdFloatMult                0      0.00%     62.03% # Class of executed instruction
system.cpu02.op_class::SimdFloatMultAcc             0      0.00%     62.03% # Class of executed instruction
system.cpu02.op_class::SimdFloatSqrt                0      0.00%     62.03% # Class of executed instruction
system.cpu02.op_class::SimdAes                      0      0.00%     62.03% # Class of executed instruction
system.cpu02.op_class::SimdAesMix                   0      0.00%     62.03% # Class of executed instruction
system.cpu02.op_class::SimdSha1Hash                 0      0.00%     62.03% # Class of executed instruction
system.cpu02.op_class::SimdSha1Hash2                0      0.00%     62.03% # Class of executed instruction
system.cpu02.op_class::SimdSha256Hash               0      0.00%     62.03% # Class of executed instruction
system.cpu02.op_class::SimdSha256Hash2              0      0.00%     62.03% # Class of executed instruction
system.cpu02.op_class::SimdShaSigma2                0      0.00%     62.03% # Class of executed instruction
system.cpu02.op_class::SimdShaSigma3                0      0.00%     62.03% # Class of executed instruction
system.cpu02.op_class::MemRead                    312     23.09%     85.12% # Class of executed instruction
system.cpu02.op_class::MemWrite                   189     13.99%     99.11% # Class of executed instruction
system.cpu02.op_class::FloatMemRead                 0      0.00%     99.11% # Class of executed instruction
system.cpu02.op_class::FloatMemWrite               12      0.89%    100.00% # Class of executed instruction
system.cpu02.op_class::IprAccess                    0      0.00%    100.00% # Class of executed instruction
system.cpu02.op_class::InstPrefetch                 0      0.00%    100.00% # Class of executed instruction
system.cpu02.op_class::total                     1351                       # Class of executed instruction
system.cpu02.pwrStateClkGateDist::samples            1                       # Distribution of time spent in the clock gated state
system.cpu02.pwrStateClkGateDist::mean      106117000                       # Distribution of time spent in the clock gated state
system.cpu02.pwrStateClkGateDist::1000-5e+10            1    100.00%    100.00% # Distribution of time spent in the clock gated state
system.cpu02.pwrStateClkGateDist::min_value    106117000                       # Distribution of time spent in the clock gated state
system.cpu02.pwrStateClkGateDist::max_value    106117000                       # Distribution of time spent in the clock gated state
system.cpu02.pwrStateClkGateDist::total             1                       # Distribution of time spent in the clock gated state
system.cpu02.pwrStateResidencyTicks::ON     459027000                       # Cumulative time (in ticks) in various power states
system.cpu02.pwrStateResidencyTicks::CLK_GATED    106117000                       # Cumulative time (in ticks) in various power states
system.cpu03.Branches                             274                       # Number of branches fetched
system.cpu03.committedInsts                      1407                       # Number of instructions committed
system.cpu03.committedOps                        1413                       # Number of ops (including micro ops) committed
system.cpu03.dtb.accesses                           0                       # DTB accesses
system.cpu03.dtb.hits                               0                       # DTB hits
system.cpu03.dtb.misses                             0                       # DTB misses
system.cpu03.dtb.pwrStateResidencyTicks::UNDEFINED    565144000                       # Cumulative time (in ticks) in various power states
system.cpu03.dtb.read_accesses                      0                       # DTB read accesses
system.cpu03.dtb.read_hits                          0                       # DTB read hits
system.cpu03.dtb.read_misses                        0                       # DTB read misses
system.cpu03.dtb.write_accesses                     0                       # DTB write accesses
system.cpu03.dtb.write_hits                         0                       # DTB write hits
system.cpu03.dtb.write_misses                       0                       # DTB write misses
system.cpu03.idle_fraction                   0.980877                       # Percentage of idle cycles
system.cpu03.itb.accesses                           0                       # DTB accesses
system.cpu03.itb.hits                               0                       # DTB hits
system.cpu03.itb.misses                             0                       # DTB misses
system.cpu03.itb.pwrStateResidencyTicks::UNDEFINED    565144000                       # Cumulative time (in ticks) in various power states
system.cpu03.itb.read_accesses                      0                       # DTB read accesses
system.cpu03.itb.read_hits                          0                       # DTB read hits
system.cpu03.itb.read_misses                        0                       # DTB read misses
system.cpu03.itb.write_accesses                     0                       # DTB write accesses
system.cpu03.itb.write_hits                         0                       # DTB write hits
system.cpu03.itb.write_misses                       0                       # DTB write misses
system.cpu03.not_idle_fraction               0.019123                       # Percentage of non-idle cycles
system.cpu03.numCycles                        1130250                       # number of cpu cycles simulated
system.cpu03.numPwrStateTransitions                 2                       # Number of power state transitions
system.cpu03.numWorkItemsCompleted                  0                       # number of work items this cpu completed
system.cpu03.numWorkItemsStarted                    0                       # number of work items this cpu started
system.cpu03.num_busy_cycles             21613.275304                       # Number of busy cycles
system.cpu03.num_conditional_control_insts          140                       # number of instructions that are conditional controls
system.cpu03.num_fp_alu_accesses                   12                       # Number of float alu accesses
system.cpu03.num_fp_insts                          12                       # number of float instructions
system.cpu03.num_fp_register_reads                 12                       # number of times the floating registers were read
system.cpu03.num_fp_register_writes                 0                       # number of times the floating registers were written
system.cpu03.num_func_calls                       134                       # number of times a function call or return occured
system.cpu03.num_idle_cycles             1108636.724696                       # Number of idle cycles
system.cpu03.num_int_alu_accesses                1380                       # Number of integer alu accesses
system.cpu03.num_int_insts                       1380                       # number of integer instructions
system.cpu03.num_int_register_reads              1606                       # number of times the integer registers were read
system.cpu03.num_int_register_writes              982                       # number of times the integer registers were written
system.cpu03.num_load_insts                       323                       # Number of load instructions
system.cpu03.num_mem_refs                         533                       # number of memory refs
system.cpu03.num_store_insts                      210                       # Number of store instructions
system.cpu03.num_vec_alu_accesses                   0                       # Number of vector alu accesses
system.cpu03.num_vec_insts                          0                       # number of vector instructions
system.cpu03.num_vec_register_reads                 0                       # number of times the vector registers were read
system.cpu03.num_vec_register_writes                0                       # number of times the vector registers were written
system.cpu03.op_class::No_OpClass                  10      0.71%      0.71% # Class of executed instruction
system.cpu03.op_class::IntAlu                     869     61.41%     62.12% # Class of executed instruction
system.cpu03.op_class::IntMult                      1      0.07%     62.19% # Class of executed instruction
system.cpu03.op_class::IntDiv                       2      0.14%     62.33% # Class of executed instruction
system.cpu03.op_class::FloatAdd                     0      0.00%     62.33% # Class of executed instruction
system.cpu03.op_class::FloatCmp                     0      0.00%     62.33% # Class of executed instruction
system.cpu03.op_class::FloatCvt                     0      0.00%     62.33% # Class of executed instruction
system.cpu03.op_class::FloatMult                    0      0.00%     62.33% # Class of executed instruction
system.cpu03.op_class::FloatMultAcc                 0      0.00%     62.33% # Class of executed instruction
system.cpu03.op_class::FloatDiv                     0      0.00%     62.33% # Class of executed instruction
system.cpu03.op_class::FloatMisc                    0      0.00%     62.33% # Class of executed instruction
system.cpu03.op_class::FloatSqrt                    0      0.00%     62.33% # Class of executed instruction
system.cpu03.op_class::SimdAdd                      0      0.00%     62.33% # Class of executed instruction
system.cpu03.op_class::SimdAddAcc                   0      0.00%     62.33% # Class of executed instruction
system.cpu03.op_class::SimdAlu                      0      0.00%     62.33% # Class of executed instruction
system.cpu03.op_class::SimdCmp                      0      0.00%     62.33% # Class of executed instruction
system.cpu03.op_class::SimdCvt                      0      0.00%     62.33% # Class of executed instruction
system.cpu03.op_class::SimdMisc                     0      0.00%     62.33% # Class of executed instruction
system.cpu03.op_class::SimdMult                     0      0.00%     62.33% # Class of executed instruction
system.cpu03.op_class::SimdMultAcc                  0      0.00%     62.33% # Class of executed instruction
system.cpu03.op_class::SimdShift                    0      0.00%     62.33% # Class of executed instruction
system.cpu03.op_class::SimdShiftAcc                 0      0.00%     62.33% # Class of executed instruction
system.cpu03.op_class::SimdSqrt                     0      0.00%     62.33% # Class of executed instruction
system.cpu03.op_class::SimdFloatAdd                 0      0.00%     62.33% # Class of executed instruction
system.cpu03.op_class::SimdFloatAlu                 0      0.00%     62.33% # Class of executed instruction
system.cpu03.op_class::SimdFloatCmp                 0      0.00%     62.33% # Class of executed instruction
system.cpu03.op_class::SimdFloatCvt                 0      0.00%     62.33% # Class of executed instruction
system.cpu03.op_class::SimdFloatDiv                 0      0.00%     62.33% # Class of executed instruction
system.cpu03.op_class::SimdFloatMisc                0      0.00%     62.33% # Class of executed instruction
system.cpu03.op_class::SimdFloatMult                0      0.00%     62.33% # Class of executed instruction
system.cpu03.op_class::SimdFloatMultAcc             0      0.00%     62.33% # Class of executed instruction
system.cpu03.op_class::SimdFloatSqrt                0      0.00%     62.33% # Class of executed instruction
system.cpu03.op_class::SimdAes                      0      0.00%     62.33% # Class of executed instruction
system.cpu03.op_class::SimdAesMix                   0      0.00%     62.33% # Class of executed instruction
system.cpu03.op_class::SimdSha1Hash                 0      0.00%     62.33% # Class of executed instruction
system.cpu03.op_class::SimdSha1Hash2                0      0.00%     62.33% # Class of executed instruction
system.cpu03.op_class::SimdSha256Hash               0      0.00%     62.33% # Class of executed instruction
system.cpu03.op_class::SimdSha256Hash2              0      0.00%     62.33% # Class of executed instruction
system.cpu03.op_class::SimdShaSigma2                0      0.00%     62.33% # Class of executed instruction
system.cpu03.op_class::SimdShaSigma3                0      0.00%     62.33% # Class of executed instruction
system.cpu03.op_class::MemRead                    327     23.11%     85.44% # Class of executed instruction
system.cpu03.op_class::MemWrite                   194     13.71%     99.15% # Class of executed instruction
system.cpu03.op_class::FloatMemRead                 0      0.00%     99.15% # Class of executed instruction
system.cpu03.op_class::FloatMemWrite               12      0.85%    100.00% # Class of executed instruction
system.cpu03.op_class::IprAccess                    0      0.00%    100.00% # Class of executed instruction
system.cpu03.op_class::InstPrefetch                 0      0.00%    100.00% # Class of executed instruction
system.cpu03.op_class::total                     1415                       # Class of executed instruction
system.cpu03.pwrStateClkGateDist::samples            1                       # Distribution of time spent in the clock gated state
system.cpu03.pwrStateClkGateDist::mean       98025000                       # Distribution of time spent in the clock gated state
system.cpu03.pwrStateClkGateDist::1000-5e+10            1    100.00%    100.00% # Distribution of time spent in the clock gated state
system.cpu03.pwrStateClkGateDist::min_value     98025000                       # Distribution of time spent in the clock gated state
system.cpu03.pwrStateClkGateDist::max_value     98025000                       # Distribution of time spent in the clock gated state
system.cpu03.pwrStateClkGateDist::total             1                       # Distribution of time spent in the clock gated state
system.cpu03.pwrStateResidencyTicks::ON     467119000                       # Cumulative time (in ticks) in various power states
system.cpu03.pwrStateResidencyTicks::CLK_GATED     98025000                       # Cumulative time (in ticks) in various power states
system.cpu04.Branches                             236                       # Number of branches fetched
system.cpu04.committedInsts                      1208                       # Number of instructions committed
system.cpu04.committedOps                        1214                       # Number of ops (including micro ops) committed
system.cpu04.dtb.accesses                           0                       # DTB accesses
system.cpu04.dtb.hits                               0                       # DTB hits
system.cpu04.dtb.misses                             0                       # DTB misses
system.cpu04.dtb.pwrStateResidencyTicks::UNDEFINED    565144000                       # Cumulative time (in ticks) in various power states
system.cpu04.dtb.read_accesses                      0                       # DTB read accesses
system.cpu04.dtb.read_hits                          0                       # DTB read hits
system.cpu04.dtb.read_misses                        0                       # DTB read misses
system.cpu04.dtb.write_accesses                     0                       # DTB write accesses
system.cpu04.dtb.write_hits                         0                       # DTB write hits
system.cpu04.dtb.write_misses                       0                       # DTB write misses
system.cpu04.idle_fraction                   0.981054                       # Percentage of idle cycles
system.cpu04.itb.accesses                           0                       # DTB accesses
system.cpu04.itb.hits                               0                       # DTB hits
system.cpu04.itb.misses                             0                       # DTB misses
system.cpu04.itb.pwrStateResidencyTicks::UNDEFINED    565144000                       # Cumulative time (in ticks) in various power states
system.cpu04.itb.read_accesses                      0                       # DTB read accesses
system.cpu04.itb.read_hits                          0                       # DTB read hits
system.cpu04.itb.read_misses                        0                       # DTB read misses
system.cpu04.itb.write_accesses                     0                       # DTB write accesses
system.cpu04.itb.write_hits                         0                       # DTB write hits
system.cpu04.itb.write_misses                       0                       # DTB write misses
system.cpu04.not_idle_fraction               0.018946                       # Percentage of non-idle cycles
system.cpu04.numCycles                        1130253                       # number of cpu cycles simulated
system.cpu04.numPwrStateTransitions                 2                       # Number of power state transitions
system.cpu04.numWorkItemsCompleted                  0                       # number of work items this cpu completed
system.cpu04.numWorkItemsStarted                    0                       # number of work items this cpu started
system.cpu04.num_busy_cycles             21413.338866                       # Number of busy cycles
system.cpu04.num_conditional_control_insts          122                       # number of instructions that are conditional controls
system.cpu04.num_fp_alu_accesses                   12                       # Number of float alu accesses
system.cpu04.num_fp_insts                          12                       # number of float instructions
system.cpu04.num_fp_register_reads                 12                       # number of times the floating registers were read
system.cpu04.num_fp_register_writes                 0                       # number of times the floating registers were written
system.cpu04.num_func_calls                       114                       # number of times a function call or return occured
system.cpu04.num_idle_cycles             1108839.661134                       # Number of idle cycles
system.cpu04.num_int_alu_accesses                1186                       # Number of integer alu accesses
system.cpu04.num_int_insts                       1186                       # number of integer instructions
system.cpu04.num_int_register_reads              1384                       # number of times the integer registers were read
system.cpu04.num_int_register_writes              835                       # number of times the integer registers were written
system.cpu04.num_load_insts                       274                       # Number of load instructions
system.cpu04.num_mem_refs                         464                       # number of memory refs
system.cpu04.num_store_insts                      190                       # Number of store instructions
system.cpu04.num_vec_alu_accesses                   0                       # Number of vector alu accesses
system.cpu04.num_vec_insts                          0                       # number of vector instructions
system.cpu04.num_vec_register_reads                 0                       # number of times the vector registers were read
system.cpu04.num_vec_register_writes                0                       # number of times the vector registers were written
system.cpu04.op_class::No_OpClass                  10      0.82%      0.82% # Class of executed instruction
system.cpu04.op_class::IntAlu                     739     60.77%     61.60% # Class of executed instruction
system.cpu04.op_class::IntMult                      1      0.08%     61.68% # Class of executed instruction
system.cpu04.op_class::IntDiv                       2      0.16%     61.84% # Class of executed instruction
system.cpu04.op_class::FloatAdd                     0      0.00%     61.84% # Class of executed instruction
system.cpu04.op_class::FloatCmp                     0      0.00%     61.84% # Class of executed instruction
system.cpu04.op_class::FloatCvt                     0      0.00%     61.84% # Class of executed instruction
system.cpu04.op_class::FloatMult                    0      0.00%     61.84% # Class of executed instruction
system.cpu04.op_class::FloatMultAcc                 0      0.00%     61.84% # Class of executed instruction
system.cpu04.op_class::FloatDiv                     0      0.00%     61.84% # Class of executed instruction
system.cpu04.op_class::FloatMisc                    0      0.00%     61.84% # Class of executed instruction
system.cpu04.op_class::FloatSqrt                    0      0.00%     61.84% # Class of executed instruction
system.cpu04.op_class::SimdAdd                      0      0.00%     61.84% # Class of executed instruction
system.cpu04.op_class::SimdAddAcc                   0      0.00%     61.84% # Class of executed instruction
system.cpu04.op_class::SimdAlu                      0      0.00%     61.84% # Class of executed instruction
system.cpu04.op_class::SimdCmp                      0      0.00%     61.84% # Class of executed instruction
system.cpu04.op_class::SimdCvt                      0      0.00%     61.84% # Class of executed instruction
system.cpu04.op_class::SimdMisc                     0      0.00%     61.84% # Class of executed instruction
system.cpu04.op_class::SimdMult                     0      0.00%     61.84% # Class of executed instruction
system.cpu04.op_class::SimdMultAcc                  0      0.00%     61.84% # Class of executed instruction
system.cpu04.op_class::SimdShift                    0      0.00%     61.84% # Class of executed instruction
system.cpu04.op_class::SimdShiftAcc                 0      0.00%     61.84% # Class of executed instruction
system.cpu04.op_class::SimdSqrt                     0      0.00%     61.84% # Class of executed instruction
system.cpu04.op_class::SimdFloatAdd                 0      0.00%     61.84% # Class of executed instruction
system.cpu04.op_class::SimdFloatAlu                 0      0.00%     61.84% # Class of executed instruction
system.cpu04.op_class::SimdFloatCmp                 0      0.00%     61.84% # Class of executed instruction
system.cpu04.op_class::SimdFloatCvt                 0      0.00%     61.84% # Class of executed instruction
system.cpu04.op_class::SimdFloatDiv                 0      0.00%     61.84% # Class of executed instruction
system.cpu04.op_class::SimdFloatMisc                0      0.00%     61.84% # Class of executed instruction
system.cpu04.op_class::SimdFloatMult                0      0.00%     61.84% # Class of executed instruction
system.cpu04.op_class::SimdFloatMultAcc             0      0.00%     61.84% # Class of executed instruction
system.cpu04.op_class::SimdFloatSqrt                0      0.00%     61.84% # Class of executed instruction
system.cpu04.op_class::SimdAes                      0      0.00%     61.84% # Class of executed instruction
system.cpu04.op_class::SimdAesMix                   0      0.00%     61.84% # Class of executed instruction
system.cpu04.op_class::SimdSha1Hash                 0      0.00%     61.84% # Class of executed instruction
system.cpu04.op_class::SimdSha1Hash2                0      0.00%     61.84% # Class of executed instruction
system.cpu04.op_class::SimdSha256Hash               0      0.00%     61.84% # Class of executed instruction
system.cpu04.op_class::SimdSha256Hash2              0      0.00%     61.84% # Class of executed instruction
system.cpu04.op_class::SimdShaSigma2                0      0.00%     61.84% # Class of executed instruction
system.cpu04.op_class::SimdShaSigma3                0      0.00%     61.84% # Class of executed instruction
system.cpu04.op_class::MemRead                    278     22.86%     84.70% # Class of executed instruction
system.cpu04.op_class::MemWrite                   174     14.31%     99.01% # Class of executed instruction
system.cpu04.op_class::FloatMemRead                 0      0.00%     99.01% # Class of executed instruction
system.cpu04.op_class::FloatMemWrite               12      0.99%    100.00% # Class of executed instruction
system.cpu04.op_class::IprAccess                    0      0.00%    100.00% # Class of executed instruction
system.cpu04.op_class::InstPrefetch                 0      0.00%    100.00% # Class of executed instruction
system.cpu04.op_class::total                     1216                       # Class of executed instruction
system.cpu04.pwrStateClkGateDist::samples            1                       # Distribution of time spent in the clock gated state
system.cpu04.pwrStateClkGateDist::mean       90674500                       # Distribution of time spent in the clock gated state
system.cpu04.pwrStateClkGateDist::1000-5e+10            1    100.00%    100.00% # Distribution of time spent in the clock gated state
system.cpu04.pwrStateClkGateDist::min_value     90674500                       # Distribution of time spent in the clock gated state
system.cpu04.pwrStateClkGateDist::max_value     90674500                       # Distribution of time spent in the clock gated state
system.cpu04.pwrStateClkGateDist::total             1                       # Distribution of time spent in the clock gated state
system.cpu04.pwrStateResidencyTicks::ON     474469500                       # Cumulative time (in ticks) in various power states
system.cpu04.pwrStateResidencyTicks::CLK_GATED     90674500                       # Cumulative time (in ticks) in various power states
system.cpu05.Branches                             251                       # Number of branches fetched
system.cpu05.committedInsts                      1292                       # Number of instructions committed
system.cpu05.committedOps                        1298                       # Number of ops (including micro ops) committed
system.cpu05.dtb.accesses                           0                       # DTB accesses
system.cpu05.dtb.hits                               0                       # DTB hits
system.cpu05.dtb.misses                             0                       # DTB misses
system.cpu05.dtb.pwrStateResidencyTicks::UNDEFINED    565144000                       # Cumulative time (in ticks) in various power states
system.cpu05.dtb.read_accesses                      0                       # DTB read accesses
system.cpu05.dtb.read_hits                          0                       # DTB read hits
system.cpu05.dtb.read_misses                        0                       # DTB read misses
system.cpu05.dtb.write_accesses                     0                       # DTB write accesses
system.cpu05.dtb.write_hits                         0                       # DTB write hits
system.cpu05.dtb.write_misses                       0                       # DTB write misses
system.cpu05.idle_fraction                   0.980929                       # Percentage of idle cycles
system.cpu05.itb.accesses                           0                       # DTB accesses
system.cpu05.itb.hits                               0                       # DTB hits
system.cpu05.itb.misses                             0                       # DTB misses
system.cpu05.itb.pwrStateResidencyTicks::UNDEFINED    565144000                       # Cumulative time (in ticks) in various power states
system.cpu05.itb.read_accesses                      0                       # DTB read accesses
system.cpu05.itb.read_hits                          0                       # DTB read hits
system.cpu05.itb.read_misses                        0                       # DTB read misses
system.cpu05.itb.write_accesses                     0                       # DTB write accesses
system.cpu05.itb.write_hits                         0                       # DTB write hits
system.cpu05.itb.write_misses                       0                       # DTB write misses
system.cpu05.not_idle_fraction               0.019071                       # Percentage of non-idle cycles
system.cpu05.numCycles                        1130094                       # number of cpu cycles simulated
system.cpu05.numPwrStateTransitions                 2                       # Number of power state transitions
system.cpu05.numWorkItemsCompleted                  0                       # number of work items this cpu completed
system.cpu05.numWorkItemsStarted                    0                       # number of work items this cpu started
system.cpu05.num_busy_cycles             21552.302140                       # Number of busy cycles
system.cpu05.num_conditional_control_insts          131                       # number of instructions that are conditional controls
system.cpu05.num_fp_alu_accesses                   12                       # Number of float alu accesses
system.cpu05.num_fp_insts                          12                       # number of float instructions
system.cpu05.num_fp_register_reads                 12                       # number of times the floating registers were read
system.cpu05.num_fp_register_writes                 0                       # number of times the floating registers were written
system.cpu05.num_func_calls                       120                       # number of times a function call or return occured
system.cpu05.num_idle_cycles             1108541.697860                       # Number of idle cycles
system.cpu05.num_int_alu_accesses                1270                       # Number of integer alu accesses
system.cpu05.num_int_insts                       1270                       # number of integer instructions
system.cpu05.num_int_register_reads              1480                       # number of times the integer registers were read
system.cpu05.num_int_register_writes              898                       # number of times the integer registers were written
system.cpu05.num_load_insts                       295                       # Number of load instructions
system.cpu05.num_mem_refs                         494                       # number of memory refs
system.cpu05.num_store_insts                      199                       # Number of store instructions
system.cpu05.num_vec_alu_accesses                   0                       # Number of vector alu accesses
system.cpu05.num_vec_insts                          0                       # number of vector instructions
system.cpu05.num_vec_register_reads                 0                       # number of times the vector registers were read
system.cpu05.num_vec_register_writes                0                       # number of times the vector registers were written
system.cpu05.op_class::No_OpClass                  10      0.77%      0.77% # Class of executed instruction
system.cpu05.op_class::IntAlu                     793     61.00%     61.77% # Class of executed instruction
system.cpu05.op_class::IntMult                      1      0.08%     61.85% # Class of executed instruction
system.cpu05.op_class::IntDiv                       2      0.15%     62.00% # Class of executed instruction
system.cpu05.op_class::FloatAdd                     0      0.00%     62.00% # Class of executed instruction
system.cpu05.op_class::FloatCmp                     0      0.00%     62.00% # Class of executed instruction
system.cpu05.op_class::FloatCvt                     0      0.00%     62.00% # Class of executed instruction
system.cpu05.op_class::FloatMult                    0      0.00%     62.00% # Class of executed instruction
system.cpu05.op_class::FloatMultAcc                 0      0.00%     62.00% # Class of executed instruction
system.cpu05.op_class::FloatDiv                     0      0.00%     62.00% # Class of executed instruction
system.cpu05.op_class::FloatMisc                    0      0.00%     62.00% # Class of executed instruction
system.cpu05.op_class::FloatSqrt                    0      0.00%     62.00% # Class of executed instruction
system.cpu05.op_class::SimdAdd                      0      0.00%     62.00% # Class of executed instruction
system.cpu05.op_class::SimdAddAcc                   0      0.00%     62.00% # Class of executed instruction
system.cpu05.op_class::SimdAlu                      0      0.00%     62.00% # Class of executed instruction
system.cpu05.op_class::SimdCmp                      0      0.00%     62.00% # Class of executed instruction
system.cpu05.op_class::SimdCvt                      0      0.00%     62.00% # Class of executed instruction
system.cpu05.op_class::SimdMisc                     0      0.00%     62.00% # Class of executed instruction
system.cpu05.op_class::SimdMult                     0      0.00%     62.00% # Class of executed instruction
system.cpu05.op_class::SimdMultAcc                  0      0.00%     62.00% # Class of executed instruction
system.cpu05.op_class::SimdShift                    0      0.00%     62.00% # Class of executed instruction
system.cpu05.op_class::SimdShiftAcc                 0      0.00%     62.00% # Class of executed instruction
system.cpu05.op_class::SimdSqrt                     0      0.00%     62.00% # Class of executed instruction
system.cpu05.op_class::SimdFloatAdd                 0      0.00%     62.00% # Class of executed instruction
system.cpu05.op_class::SimdFloatAlu                 0      0.00%     62.00% # Class of executed instruction
system.cpu05.op_class::SimdFloatCmp                 0      0.00%     62.00% # Class of executed instruction
system.cpu05.op_class::SimdFloatCvt                 0      0.00%     62.00% # Class of executed instruction
system.cpu05.op_class::SimdFloatDiv                 0      0.00%     62.00% # Class of executed instruction
system.cpu05.op_class::SimdFloatMisc                0      0.00%     62.00% # Class of executed instruction
system.cpu05.op_class::SimdFloatMult                0      0.00%     62.00% # Class of executed instruction
system.cpu05.op_class::SimdFloatMultAcc             0      0.00%     62.00% # Class of executed instruction
system.cpu05.op_class::SimdFloatSqrt                0      0.00%     62.00% # Class of executed instruction
system.cpu05.op_class::SimdAes                      0      0.00%     62.00% # Class of executed instruction
system.cpu05.op_class::SimdAesMix                   0      0.00%     62.00% # Class of executed instruction
system.cpu05.op_class::SimdSha1Hash                 0      0.00%     62.00% # Class of executed instruction
system.cpu05.op_class::SimdSha1Hash2                0      0.00%     62.00% # Class of executed instruction
system.cpu05.op_class::SimdSha256Hash               0      0.00%     62.00% # Class of executed instruction
system.cpu05.op_class::SimdSha256Hash2              0      0.00%     62.00% # Class of executed instruction
system.cpu05.op_class::SimdShaSigma2                0      0.00%     62.00% # Class of executed instruction
system.cpu05.op_class::SimdShaSigma3                0      0.00%     62.00% # Class of executed instruction
system.cpu05.op_class::MemRead                    299     23.00%     85.00% # Class of executed instruction
system.cpu05.op_class::MemWrite                   183     14.08%     99.08% # Class of executed instruction
system.cpu05.op_class::FloatMemRead                 0      0.00%     99.08% # Class of executed instruction
system.cpu05.op_class::FloatMemWrite               12      0.92%    100.00% # Class of executed instruction
system.cpu05.op_class::IprAccess                    0      0.00%    100.00% # Class of executed instruction
system.cpu05.op_class::InstPrefetch                 0      0.00%    100.00% # Class of executed instruction
system.cpu05.op_class::total                     1300                       # Class of executed instruction
system.cpu05.pwrStateClkGateDist::samples            1                       # Distribution of time spent in the clock gated state
system.cpu05.pwrStateClkGateDist::mean       82869000                       # Distribution of time spent in the clock gated state
system.cpu05.pwrStateClkGateDist::1000-5e+10            1    100.00%    100.00% # Distribution of time spent in the clock gated state
system.cpu05.pwrStateClkGateDist::min_value     82869000                       # Distribution of time spent in the clock gated state
system.cpu05.pwrStateClkGateDist::max_value     82869000                       # Distribution of time spent in the clock gated state
system.cpu05.pwrStateClkGateDist::total             1                       # Distribution of time spent in the clock gated state
system.cpu05.pwrStateResidencyTicks::ON     482275000                       # Cumulative time (in ticks) in various power states
system.cpu05.pwrStateResidencyTicks::CLK_GATED     82869000                       # Cumulative time (in ticks) in various power states
system.cpu06.Branches                             264                       # Number of branches fetched
system.cpu06.committedInsts                      1356                       # Number of instructions committed
system.cpu06.committedOps                        1362                       # Number of ops (including micro ops) committed
system.cpu06.dtb.accesses                           0                       # DTB accesses
system.cpu06.dtb.hits                               0                       # DTB hits
system.cpu06.dtb.misses                             0                       # DTB misses
system.cpu06.dtb.pwrStateResidencyTicks::UNDEFINED    565144000                       # Cumulative time (in ticks) in various power states
system.cpu06.dtb.read_accesses                      0                       # DTB read accesses
system.cpu06.dtb.read_hits                          0                       # DTB read hits
system.cpu06.dtb.read_misses                        0                       # DTB read misses
system.cpu06.dtb.write_accesses                     0                       # DTB write accesses
system.cpu06.dtb.write_hits                         0                       # DTB write hits
system.cpu06.dtb.write_misses                       0                       # DTB write misses
system.cpu06.idle_fraction                   0.980951                       # Percentage of idle cycles
system.cpu06.itb.accesses                           0                       # DTB accesses
system.cpu06.itb.hits                               0                       # DTB hits
system.cpu06.itb.misses                             0                       # DTB misses
system.cpu06.itb.pwrStateResidencyTicks::UNDEFINED    565144000                       # Cumulative time (in ticks) in various power states
system.cpu06.itb.read_accesses                      0                       # DTB read accesses
system.cpu06.itb.read_hits                          0                       # DTB read hits
system.cpu06.itb.read_misses                        0                       # DTB read misses
system.cpu06.itb.write_accesses                     0                       # DTB write accesses
system.cpu06.itb.write_hits                         0                       # DTB write hits
system.cpu06.itb.write_misses                       0                       # DTB write misses
system.cpu06.not_idle_fraction               0.019049                       # Percentage of non-idle cycles
system.cpu06.numCycles                        1130236                       # number of cpu cycles simulated
system.cpu06.numPwrStateTransitions                 2                       # Number of power state transitions
system.cpu06.numWorkItemsCompleted                  0                       # number of work items this cpu completed
system.cpu06.numWorkItemsStarted                    0                       # number of work items this cpu started
system.cpu06.num_busy_cycles             21530.011407                       # Number of busy cycles
system.cpu06.num_conditional_control_insts          135                       # number of instructions that are conditional controls
system.cpu06.num_fp_alu_accesses                   12                       # Number of float alu accesses
system.cpu06.num_fp_insts                          12                       # number of float instructions
system.cpu06.num_fp_register_reads                 12                       # number of times the floating registers were read
system.cpu06.num_fp_register_writes                 0                       # number of times the floating registers were written
system.cpu06.num_func_calls                       129                       # number of times a function call or return occured
system.cpu06.num_idle_cycles             1108705.988593                       # Number of idle cycles
system.cpu06.num_int_alu_accesses                1330                       # Number of integer alu accesses
system.cpu06.num_int_insts                       1330                       # number of integer instructions
system.cpu06.num_int_register_reads              1551                       # number of times the integer registers were read
system.cpu06.num_int_register_writes              945                       # number of times the integer registers were written
system.cpu06.num_load_insts                       313                       # Number of load instructions
system.cpu06.num_mem_refs                         518                       # number of memory refs
system.cpu06.num_store_insts                      205                       # Number of store instructions
system.cpu06.num_vec_alu_accesses                   0                       # Number of vector alu accesses
system.cpu06.num_vec_insts                          0                       # number of vector instructions
system.cpu06.num_vec_register_reads                 0                       # number of times the vector registers were read
system.cpu06.num_vec_register_writes                0                       # number of times the vector registers were written
system.cpu06.op_class::No_OpClass                  10      0.73%      0.73% # Class of executed instruction
system.cpu06.op_class::IntAlu                     833     61.07%     61.80% # Class of executed instruction
system.cpu06.op_class::IntMult                      1      0.07%     61.88% # Class of executed instruction
system.cpu06.op_class::IntDiv                       2      0.15%     62.02% # Class of executed instruction
system.cpu06.op_class::FloatAdd                     0      0.00%     62.02% # Class of executed instruction
system.cpu06.op_class::FloatCmp                     0      0.00%     62.02% # Class of executed instruction
system.cpu06.op_class::FloatCvt                     0      0.00%     62.02% # Class of executed instruction
system.cpu06.op_class::FloatMult                    0      0.00%     62.02% # Class of executed instruction
system.cpu06.op_class::FloatMultAcc                 0      0.00%     62.02% # Class of executed instruction
system.cpu06.op_class::FloatDiv                     0      0.00%     62.02% # Class of executed instruction
system.cpu06.op_class::FloatMisc                    0      0.00%     62.02% # Class of executed instruction
system.cpu06.op_class::FloatSqrt                    0      0.00%     62.02% # Class of executed instruction
system.cpu06.op_class::SimdAdd                      0      0.00%     62.02% # Class of executed instruction
system.cpu06.op_class::SimdAddAcc                   0      0.00%     62.02% # Class of executed instruction
system.cpu06.op_class::SimdAlu                      0      0.00%     62.02% # Class of executed instruction
system.cpu06.op_class::SimdCmp                      0      0.00%     62.02% # Class of executed instruction
system.cpu06.op_class::SimdCvt                      0      0.00%     62.02% # Class of executed instruction
system.cpu06.op_class::SimdMisc                     0      0.00%     62.02% # Class of executed instruction
system.cpu06.op_class::SimdMult                     0      0.00%     62.02% # Class of executed instruction
system.cpu06.op_class::SimdMultAcc                  0      0.00%     62.02% # Class of executed instruction
system.cpu06.op_class::SimdShift                    0      0.00%     62.02% # Class of executed instruction
system.cpu06.op_class::SimdShiftAcc                 0      0.00%     62.02% # Class of executed instruction
system.cpu06.op_class::SimdSqrt                     0      0.00%     62.02% # Class of executed instruction
system.cpu06.op_class::SimdFloatAdd                 0      0.00%     62.02% # Class of executed instruction
system.cpu06.op_class::SimdFloatAlu                 0      0.00%     62.02% # Class of executed instruction
system.cpu06.op_class::SimdFloatCmp                 0      0.00%     62.02% # Class of executed instruction
system.cpu06.op_class::SimdFloatCvt                 0      0.00%     62.02% # Class of executed instruction
system.cpu06.op_class::SimdFloatDiv                 0      0.00%     62.02% # Class of executed instruction
system.cpu06.op_class::SimdFloatMisc                0      0.00%     62.02% # Class of executed instruction
system.cpu06.op_class::SimdFloatMult                0      0.00%     62.02% # Class of executed instruction
system.cpu06.op_class::SimdFloatMultAcc             0      0.00%     62.02% # Class of executed instruction
system.cpu06.op_class::SimdFloatSqrt                0      0.00%     62.02% # Class of executed instruction
system.cpu06.op_class::SimdAes                      0      0.00%     62.02% # Class of executed instruction
system.cpu06.op_class::SimdAesMix                   0      0.00%     62.02% # Class of executed instruction
system.cpu06.op_class::SimdSha1Hash                 0      0.00%     62.02% # Class of executed instruction
system.cpu06.op_class::SimdSha1Hash2                0      0.00%     62.02% # Class of executed instruction
system.cpu06.op_class::SimdSha256Hash               0      0.00%     62.02% # Class of executed instruction
system.cpu06.op_class::SimdSha256Hash2              0      0.00%     62.02% # Class of executed instruction
system.cpu06.op_class::SimdShaSigma2                0      0.00%     62.02% # Class of executed instruction
system.cpu06.op_class::SimdShaSigma3                0      0.00%     62.02% # Class of executed instruction
system.cpu06.op_class::MemRead                    317     23.24%     85.26% # Class of executed instruction
system.cpu06.op_class::MemWrite                   189     13.86%     99.12% # Class of executed instruction
system.cpu06.op_class::FloatMemRead                 0      0.00%     99.12% # Class of executed instruction
system.cpu06.op_class::FloatMemWrite               12      0.88%    100.00% # Class of executed instruction
system.cpu06.op_class::IprAccess                    0      0.00%    100.00% # Class of executed instruction
system.cpu06.op_class::InstPrefetch                 0      0.00%    100.00% # Class of executed instruction
system.cpu06.op_class::total                     1364                       # Class of executed instruction
system.cpu06.pwrStateClkGateDist::samples            1                       # Distribution of time spent in the clock gated state
system.cpu06.pwrStateClkGateDist::mean       74852000                       # Distribution of time spent in the clock gated state
system.cpu06.pwrStateClkGateDist::1000-5e+10            1    100.00%    100.00% # Distribution of time spent in the clock gated state
system.cpu06.pwrStateClkGateDist::min_value     74852000                       # Distribution of time spent in the clock gated state
[...]
system.ruby.network.int_links39.credit_link.pwrStateResidencyTicks::UNDEFINED    565144000                       # Cumulative time (in ticks) in various power states
system.ruby.network.int_links39.network_link.pwrStateResidencyTicks::UNDEFINED    565144000                       # Cumulative time (in ticks) in various power states
system.ruby.network.int_links40.credit_link.pwrStateResidencyTicks::UNDEFINED    565144000                       # Cumulative time (in ticks) in various power states
system.ruby.network.int_links40.network_link.pwrStateResidencyTicks::UNDEFINED    565144000                       # Cumulative time (in ticks) in various power states
system.ruby.network.int_links41.credit_link.pwrStateResidencyTicks::UNDEFINED    565144000                       # Cumulative time (in ticks) in various power states
system.ruby.network.int_links41.network_link.pwrStateResidencyTicks::UNDEFINED    565144000                       # Cumulative time (in ticks) in various power states
system.ruby.network.int_links42.credit_link.pwrStateResidencyTicks::UNDEFINED    565144000                       # Cumulative time (in ticks) in various power states
system.ruby.network.int_links42.network_link.pwrStateResidencyTicks::UNDEFINED    565144000                       # Cumulative time (in ticks) in various power states
system.ruby.network.int_links43.credit_link.pwrStateResidencyTicks::UNDEFINED    565144000                       # Cumulative time (in ticks) in various power states
system.ruby.network.int_links43.network_link.pwrStateResidencyTicks::UNDEFINED    565144000                       # Cumulative time (in ticks) in various power states
system.ruby.network.int_links44.credit_link.pwrStateResidencyTicks::UNDEFINED    565144000                       # Cumulative time (in ticks) in various power states
system.ruby.network.int_links44.network_link.pwrStateResidencyTicks::UNDEFINED    565144000                       # Cumulative time (in ticks) in various power states
system.ruby.network.int_links45.credit_link.pwrStateResidencyTicks::UNDEFINED    565144000                       # Cumulative time (in ticks) in various power states
system.ruby.network.int_links45.network_link.pwrStateResidencyTicks::UNDEFINED    565144000                       # Cumulative time (in ticks) in various power states
system.ruby.network.int_links46.credit_link.pwrStateResidencyTicks::UNDEFINED    565144000                       # Cumulative time (in ticks) in various power states
system.ruby.network.int_links46.network_link.pwrStateResidencyTicks::UNDEFINED    565144000                       # Cumulative time (in ticks) in various power states
system.ruby.network.int_links47.credit_link.pwrStateResidencyTicks::UNDEFINED    565144000                       # Cumulative time (in ticks) in various power states
system.ruby.network.int_links47.network_link.pwrStateResidencyTicks::UNDEFINED    565144000                       # Cumulative time (in ticks) in various power states
system.ruby.network.netifs00.pwrStateResidencyTicks::UNDEFINED    565144000                       # Cumulative time (in ticks) in various power states
system.ruby.network.netifs01.pwrStateResidencyTicks::UNDEFINED    565144000                       # Cumulative time (in ticks) in various power states
system.ruby.network.netifs02.pwrStateResidencyTicks::UNDEFINED    565144000                       # Cumulative time (in ticks) in various power states
system.ruby.network.netifs03.pwrStateResidencyTicks::UNDEFINED    565144000                       # Cumulative time (in ticks) in various power states
system.ruby.network.netifs04.pwrStateResidencyTicks::UNDEFINED    565144000                       # Cumulative time (in ticks) in various power states
system.ruby.network.netifs05.pwrStateResidencyTicks::UNDEFINED    565144000                       # Cumulative time (in ticks) in various power states
system.ruby.network.netifs06.pwrStateResidencyTicks::UNDEFINED    565144000                       # Cumulative time (in ticks) in various power states
system.ruby.network.netifs07.pwrStateResidencyTicks::UNDEFINED    565144000                       # Cumulative time (in ticks) in various power states
system.ruby.network.netifs08.pwrStateResidencyTicks::UNDEFINED    565144000                       # Cumulative time (in ticks) in various power states
system.ruby.network.netifs09.pwrStateResidencyTicks::UNDEFINED    565144000                       # Cumulative time (in ticks) in various power states
system.ruby.network.netifs10.pwrStateResidencyTicks::UNDEFINED    565144000                       # Cumulative time (in ticks) in various power states
system.ruby.network.netifs11.pwrStateResidencyTicks::UNDEFINED    565144000                       # Cumulative time (in ticks) in various power states
system.ruby.network.netifs12.pwrStateResidencyTicks::UNDEFINED    565144000                       # Cumulative time (in ticks) in various power states
system.ruby.network.netifs13.pwrStateResidencyTicks::UNDEFINED    565144000                       # Cumulative time (in ticks) in various power states
system.ruby.network.netifs14.pwrStateResidencyTicks::UNDEFINED    565144000                       # Cumulative time (in ticks) in various power states
system.ruby.network.netifs15.pwrStateResidencyTicks::UNDEFINED    565144000                       # Cumulative time (in ticks) in various power states
system.ruby.network.netifs16.pwrStateResidencyTicks::UNDEFINED    565144000                       # Cumulative time (in ticks) in various power states
system.ruby.network.netifs17.pwrStateResidencyTicks::UNDEFINED    565144000                       # Cumulative time (in ticks) in various power states
system.ruby.network.netifs18.pwrStateResidencyTicks::UNDEFINED    565144000                       # Cumulative time (in ticks) in various power states
system.ruby.network.netifs19.pwrStateResidencyTicks::UNDEFINED    565144000                       # Cumulative time (in ticks) in various power states
system.ruby.network.netifs20.pwrStateResidencyTicks::UNDEFINED    565144000                       # Cumulative time (in ticks) in various power states
system.ruby.network.netifs21.pwrStateResidencyTicks::UNDEFINED    565144000                       # Cumulative time (in ticks) in various power states
system.ruby.network.netifs22.pwrStateResidencyTicks::UNDEFINED    565144000                       # Cumulative time (in ticks) in various power states
system.ruby.network.netifs23.pwrStateResidencyTicks::UNDEFINED    565144000                       # Cumulative time (in ticks) in various power states
system.ruby.network.netifs24.pwrStateResidencyTicks::UNDEFINED    565144000                       # Cumulative time (in ticks) in various power states
system.ruby.network.netifs25.pwrStateResidencyTicks::UNDEFINED    565144000                       # Cumulative time (in ticks) in various power states
system.ruby.network.netifs26.pwrStateResidencyTicks::UNDEFINED    565144000                       # Cumulative time (in ticks) in various power states
system.ruby.network.netifs27.pwrStateResidencyTicks::UNDEFINED    565144000                       # Cumulative time (in ticks) in various power states
system.ruby.network.netifs28.pwrStateResidencyTicks::UNDEFINED    565144000                       # Cumulative time (in ticks) in various power states
system.ruby.network.netifs29.pwrStateResidencyTicks::UNDEFINED    565144000                       # Cumulative time (in ticks) in various power states
system.ruby.network.netifs30.pwrStateResidencyTicks::UNDEFINED    565144000                       # Cumulative time (in ticks) in various power states
system.ruby.network.netifs31.pwrStateResidencyTicks::UNDEFINED    565144000                       # Cumulative time (in ticks) in various power states
system.ruby.network.netifs32.pwrStateResidencyTicks::UNDEFINED    565144000                       # Cumulative time (in ticks) in various power states
system.ruby.network.netifs33.pwrStateResidencyTicks::UNDEFINED    565144000                       # Cumulative time (in ticks) in various power states
system.ruby.network.netifs34.pwrStateResidencyTicks::UNDEFINED    565144000                       # Cumulative time (in ticks) in various power states
system.ruby.network.netifs35.pwrStateResidencyTicks::UNDEFINED    565144000                       # Cumulative time (in ticks) in various power states
system.ruby.network.packet_network_latency |      249501                       |      428013                       |       86899                      
system.ruby.network.packet_queueing_latency |      124837                       |      106379                       |       13888                      
system.ruby.network.packets_injected     |       22332     34.42%     34.42% |       32543     50.16%     84.58% |       10002     15.42%    100.00%
system.ruby.network.packets_injected::total        64877                      
system.ruby.network.packets_received     |       22329     34.42%     34.42% |       32534     50.16%     84.58% |       10001     15.42%    100.00%
system.ruby.network.packets_received::total        64864                      
system.ruby.network.pwrStateResidencyTicks::UNDEFINED    565144000                       # Cumulative time (in ticks) in various power states
system.ruby.network.routers00.buffer_reads       105729                      
system.ruby.network.routers00.buffer_writes       105729                      
system.ruby.network.routers00.crossbar_activity       105725                      
system.ruby.network.routers00.pwrStateResidencyTicks::UNDEFINED    565144000                       # Cumulative time (in ticks) in various power states
system.ruby.network.routers00.sw_input_arbiter_activity       105840                      
system.ruby.network.routers00.sw_output_arbiter_activity       105725                      
system.ruby.network.routers01.buffer_reads        47235                      
system.ruby.network.routers01.buffer_writes        47235                      
system.ruby.network.routers01.crossbar_activity        47235                      
system.ruby.network.routers01.pwrStateResidencyTicks::UNDEFINED    565144000                       # Cumulative time (in ticks) in various power states
system.ruby.network.routers01.sw_input_arbiter_activity        47279                      
system.ruby.network.routers01.sw_output_arbiter_activity        47235                      
system.ruby.network.routers02.buffer_reads        34264                      
system.ruby.network.routers02.buffer_writes        34264                      
system.ruby.network.routers02.crossbar_activity        34264                      
system.ruby.network.routers02.pwrStateResidencyTicks::UNDEFINED    565144000                       # Cumulative time (in ticks) in various power states
system.ruby.network.routers02.sw_input_arbiter_activity        34325                      
system.ruby.network.routers02.sw_output_arbiter_activity        34264                      
system.ruby.network.routers03.buffer_reads        25990                      
system.ruby.network.routers03.buffer_writes        25990                      
system.ruby.network.routers03.crossbar_activity        25990                      
system.ruby.network.routers03.pwrStateResidencyTicks::UNDEFINED    565144000                       # Cumulative time (in ticks) in various power states
system.ruby.network.routers03.sw_input_arbiter_activity        26068                      
system.ruby.network.routers03.sw_output_arbiter_activity        25990                      
system.ruby.network.routers04.buffer_reads        65151                      
system.ruby.network.routers04.buffer_writes        65151                      
system.ruby.network.routers04.crossbar_activity        65151                      
system.ruby.network.routers04.pwrStateResidencyTicks::UNDEFINED    565144000                       # Cumulative time (in ticks) in various power states
system.ruby.network.routers04.sw_input_arbiter_activity        65327                      
system.ruby.network.routers04.sw_output_arbiter_activity        65151                      
system.ruby.network.routers05.buffer_reads        24612                      
system.ruby.network.routers05.buffer_writes        24612                      
system.ruby.network.routers05.crossbar_activity        24612                      
system.ruby.network.routers05.pwrStateResidencyTicks::UNDEFINED    565144000                       # Cumulative time (in ticks) in various power states
system.ruby.network.routers05.sw_input_arbiter_activity        24634                      
system.ruby.network.routers05.sw_output_arbiter_activity        24612                      
system.ruby.network.routers06.buffer_reads        19246                      
system.ruby.network.routers06.buffer_writes        19246                      
system.ruby.network.routers06.crossbar_activity        19246                      
system.ruby.network.routers06.pwrStateResidencyTicks::UNDEFINED    565144000                       # Cumulative time (in ticks) in various power states
system.ruby.network.routers06.sw_input_arbiter_activity        19294                      
system.ruby.network.routers06.sw_output_arbiter_activity        19246                      
system.ruby.network.routers07.buffer_reads        21265                      
system.ruby.network.routers07.buffer_writes        21265                      
system.ruby.network.routers07.crossbar_activity        21265                      
system.ruby.network.routers07.pwrStateResidencyTicks::UNDEFINED    565144000                       # Cumulative time (in ticks) in various power states
system.ruby.network.routers07.sw_input_arbiter_activity        21399                      
system.ruby.network.routers07.sw_output_arbiter_activity        21265                      
system.ruby.network.routers08.buffer_reads        48375                      
system.ruby.network.routers08.buffer_writes        48375                      
system.ruby.network.routers08.crossbar_activity        48375                      
system.ruby.network.routers08.pwrStateResidencyTicks::UNDEFINED    565144000                       # Cumulative time (in ticks) in various power states
system.ruby.network.routers08.sw_input_arbiter_activity        48960                      
system.ruby.network.routers08.sw_output_arbiter_activity        48375                      
system.ruby.network.routers09.buffer_reads        24558                      
system.ruby.network.routers09.buffer_writes        24558                      
system.ruby.network.routers09.crossbar_activity        24558                      
system.ruby.network.routers09.pwrStateResidencyTicks::UNDEFINED    565144000                       # Cumulative time (in ticks) in various power states
system.ruby.network.routers09.sw_input_arbiter_activity        24609                      
system.ruby.network.routers09.sw_output_arbiter_activity        24558                      
system.ruby.network.routers10.buffer_reads        25265                      
system.ruby.network.routers10.buffer_writes        25265                      
system.ruby.network.routers10.crossbar_activity        25265                      
system.ruby.network.routers10.pwrStateResidencyTicks::UNDEFINED    565144000                       # Cumulative time (in ticks) in various power states
system.ruby.network.routers10.sw_input_arbiter_activity        25373                      
system.ruby.network.routers10.sw_output_arbiter_activity        25265                      
system.ruby.network.routers11.buffer_reads        29733                      
system.ruby.network.routers11.buffer_writes        29733                      
system.ruby.network.routers11.crossbar_activity        29733                      
system.ruby.network.routers11.pwrStateResidencyTicks::UNDEFINED    565144000                       # Cumulative time (in ticks) in various power states
system.ruby.network.routers11.sw_input_arbiter_activity        30522                      
system.ruby.network.routers11.sw_output_arbiter_activity        29733                      
system.ruby.network.routers12.buffer_reads        44197                      
system.ruby.network.routers12.buffer_writes        44197                      
system.ruby.network.routers12.crossbar_activity        44195                      
system.ruby.network.routers12.pwrStateResidencyTicks::UNDEFINED    565144000                       # Cumulative time (in ticks) in various power states
system.ruby.network.routers12.sw_input_arbiter_activity        45367                      
system.ruby.network.routers12.sw_output_arbiter_activity        44195                      
system.ruby.network.routers13.buffer_reads        30309                      
system.ruby.network.routers13.buffer_writes        30309                      
system.ruby.network.routers13.crossbar_activity        30309                      
system.ruby.network.routers13.pwrStateResidencyTicks::UNDEFINED    565144000                       # Cumulative time (in ticks) in various power states
system.ruby.network.routers13.sw_input_arbiter_activity        30413                      
system.ruby.network.routers13.sw_output_arbiter_activity        30309                      
system.ruby.network.routers14.buffer_reads        25561                      
system.ruby.network.routers14.buffer_writes        25561                      
system.ruby.network.routers14.crossbar_activity        25561                      
system.ruby.network.routers14.pwrStateResidencyTicks::UNDEFINED    565144000                       # Cumulative time (in ticks) in various power states
system.ruby.network.routers14.sw_input_arbiter_activity        25644                      
system.ruby.network.routers14.sw_output_arbiter_activity        25561                      
system.ruby.network.routers15.buffer_reads        23751                      
system.ruby.network.routers15.buffer_writes        23751                      
system.ruby.network.routers15.crossbar_activity        23751                      
system.ruby.network.routers15.pwrStateResidencyTicks::UNDEFINED    565144000                       # Cumulative time (in ticks) in various power states
system.ruby.network.routers15.sw_input_arbiter_activity        23989                      
system.ruby.network.routers15.sw_output_arbiter_activity        23751                      
system.ruby.outstanding_req_hist_seqr::bucket_size            1                      
system.ruby.outstanding_req_hist_seqr::max_bucket            9                      
system.ruby.outstanding_req_hist_seqr::samples       186665                      
system.ruby.outstanding_req_hist_seqr::mean            1                      
system.ruby.outstanding_req_hist_seqr::gmean            1                      
system.ruby.outstanding_req_hist_seqr    |           0      0.00%      0.00% |      186665    100.00%    100.00% |           0      0.00%    100.00% |           0      0.00%    100.00% |           0      0.00%    100.00% |           0      0.00%    100.00% |           0      0.00%    100.00% |           0      0.00%    100.00% |           0      0.00%    100.00% |           0      0.00%    100.00%
system.ruby.outstanding_req_hist_seqr::total       186665                      
system.ruby.pwrStateResidencyTicks::UNDEFINED    565144000                       # Cumulative time (in ticks) in various power states
system.sys_port_proxy.pwrStateResidencyTicks::UNDEFINED    565144000                       # Cumulative time (in ticks) in various power states
system.voltage_domain.voltage                       1                       # Voltage in Volts

---------- End Simulation Statistics   ----------
