
---------- Begin Simulation Statistics ----------
final_tick                                  467904000                       # Number of ticks from beginning of simulation (restored from checkpoints and never reset)
host_inst_rate                                  25706                       # Simulator instruction rate (inst/s)
host_mem_usage                                5160428                       # Number of bytes of host memory used
host_op_rate                                    25764                       # Simulator op (including micro ops) rate (op/s)
host_seconds                                     6.51                       # Real time elapsed on the host
host_tick_rate                               71837891                       # Simulator tick rate (ticks/s)
sim_freq                                 1000000000000                       # Frequency of simulated ticks
sim_insts                                      167428                       # Number of instructions simulated
sim_ops                                        167810                       # Number of ops (including micro ops) simulated
sim_seconds                                  0.000468                       # Number of seconds simulated
sim_ticks                                   467904000                       # Number of ticks simulated
system.clk_domain.clock                          1000                       # Clock period in ticks
system.cpu00.Branches                           22345                       # Number of branches fetched
system.cpu00.committedInsts                    100001                       # Number of instructions committed
system.cpu00.committedOps                      100294                       # Number of ops (including micro ops) committed
system.cpu00.dtb.accesses                           0                       # DTB accesses
system.cpu00.dtb.hits                               0                       # DTB hits
system.cpu00.dtb.misses                             0                       # DTB misses
system.cpu00.dtb.pwrStateResidencyTicks::UNDEFINED    467904000                       # Cumulative time (in ticks) in various power states
system.cpu00.dtb.read_accesses                      0                       # DTB read accesses
system.cpu00.dtb.read_hits                          0                       # DTB read hits
system.cpu00.dtb.read_misses                        0                       # DTB read misses
system.cpu00.dtb.write_accesses                     0                       # DTB write accesses
system.cpu00.dtb.write_hits                         0                       # DTB write hits
system.cpu00.dtb.write_misses                       0                       # DTB write misses
system.cpu00.idle_fraction                   0.006292                       # Percentage of idle cycles
system.cpu00.itb.accesses                           0                       # DTB accesses
system.cpu00.itb.hits                               0                       # DTB hits
system.cpu00.itb.misses                             0                       # DTB misses
system.cpu00.itb.pwrStateResidencyTicks::UNDEFINED    467904000                       # Cumulative time (in ticks) in various power states
system.cpu00.itb.read_accesses                      0                       # DTB read accesses
system.cpu00.itb.read_hits                          0                       # DTB read hits
system.cpu00.itb.read_misses                        0                       # DTB read misses
system.cpu00.itb.write_accesses                     0                       # DTB write accesses
system.cpu00.itb.write_hits                         0                       # DTB write hits
system.cpu00.itb.write_misses                       0                       # DTB write misses
system.cpu00.not_idle_fraction               0.993708                       # Percentage of non-idle cycles
system.cpu00.numCycles                         935808                       # number of cpu cycles simulated
system.cpu00.numPwrStateTransitions                 2                       # Number of power state transitions
system.cpu00.numWorkItemsCompleted                  0                       # number of work items this cpu completed
system.cpu00.numWorkItemsStarted                    0                       # number of work items this cpu started
system.cpu00.num_busy_cycles             929920.000013                       # Number of busy cycles
system.cpu00.num_conditional_control_insts        15927                       # number of instructions that are conditional controls
system.cpu00.num_fp_alu_accesses                   12                       # Number of float alu accesses
system.cpu00.num_fp_insts                          12                       # number of float instructions
system.cpu00.num_fp_register_reads                 12                       # number of times the floating registers were read
system.cpu00.num_fp_register_writes                 0                       # number of times the floating registers were written
system.cpu00.num_func_calls                      6418                       # number of times a function call or return occured
system.cpu00.num_idle_cycles              5887.999987                       # Number of idle cycles
system.cpu00.num_int_alu_accesses               98836                       # Number of integer alu accesses
system.cpu00.num_int_insts                      98836                       # number of integer instructions
system.cpu00.num_int_register_reads            120833                       # number of times the integer registers were read
system.cpu00.num_int_register_writes            64478                       # number of times the integer registers were written
system.cpu00.num_load_insts                     20286                       # Number of load instructions
system.cpu00.num_mem_refs                       36551                       # number of memory refs
system.cpu00.num_store_insts                    16265                       # Number of store instructions
system.cpu00.num_vec_alu_accesses                   0                       # Number of vector alu accesses
system.cpu00.num_vec_insts                          0                       # number of vector instructions
system.cpu00.num_vec_register_reads                 0                       # number of times the vector registers were read
system.cpu00.num_vec_register_writes                0                       # number of times the vector registers were written
system.cpu00.op_class::No_OpClass                 860      0.86%      0.86% # Class of executed instruction
system.cpu00.op_class::IntAlu                   62920     62.69%     63.55% # Class of executed instruction
system.cpu00.op_class::IntMult                     30      0.03%     63.58% # Class of executed instruction
system.cpu00.op_class::IntDiv                       6      0.01%     63.58% # Class of executed instruction
system.cpu00.op_class::FloatAdd                     0      0.00%     63.58% # Class of executed instruction
system.cpu00.op_class::FloatCmp                     0      0.00%     63.58% # Class of executed instruction
system.cpu00.op_class::FloatCvt                     0      0.00%     63.58% # Class of executed instruction
system.cpu00.op_class::FloatMult                    0      0.00%     63.58% # Class of executed instruction
system.cpu00.op_class::FloatMultAcc                 0      0.00%     63.58% # Class of executed instruction
system.cpu00.op_class::FloatDiv                     0      0.00%     63.58% # Class of executed instruction
system.cpu00.op_class::FloatMisc                    0      0.00%     63.58% # Class of executed instruction
system.cpu00.op_class::FloatSqrt                    0      0.00%     63.58% # Class of executed instruction
system.cpu00.op_class::SimdAdd                      0      0.00%     63.58% # Class of executed instruction
system.cpu00.op_class::SimdAddAcc                   0      0.00%     63.58% # Class of executed instruction
system.cpu00.op_class::SimdAlu                      0      0.00%     63.58% # Class of executed instruction
system.cpu00.op_class::SimdCmp                      0      0.00%     63.58% # Class of executed instruction
system.cpu00.op_class::SimdCvt                      0      0.00%     63.58% # Class of executed instruction
system.cpu00.op_class::SimdMisc                     0      0.00%     63.58% # Class of executed instruction
system.cpu00.op_class::SimdMult                     0      0.00%     63.58% # Class of executed instruction
system.cpu00.op_class::SimdMultAcc                  0      0.00%     63.58% # Class of executed instruction
system.cpu00.op_class::SimdShift                    0      0.00%     63.58% # Class of executed instruction
system.cpu00.op_class::SimdShiftAcc                 0      0.00%     63.58% # Class of executed instruction
system.cpu00.op_class::SimdSqrt                     0      0.00%     63.58% # Class of executed instruction
system.cpu00.op_class::SimdFloatAdd                 0      0.00%     63.58% # Class of executed instruction
system.cpu00.op_class::SimdFloatAlu                 0      0.00%     63.58% # Class of executed instruction
system.cpu00.op_class::SimdFloatCmp                 0      0.00%     63.58% # Class of executed instruction
system.cpu00.op_class::SimdFloatCvt                 0      0.00%     63.58% # Class of executed instruction
system.cpu00.op_class::SimdFloatDiv                 0      0.00%     63.58% # Class of executed instruction
system.cpu00.op_class::SimdFloatMisc                0      0.00%     63.58% # Class of executed instruction
system.cpu00.op_class::SimdFloatMult                0      0.00%     63.58% # Class of executed instruction
system.cpu00.op_class::SimdFloatMultAcc             0      0.00%     63.58% # Class of executed instruction
system.cpu00.op_class::SimdFloatSqrt                0      0.00%     63.58% # Class of executed instruction
system.cpu00.op_class::SimdAes                      0      0.00%     63.58% # Class of executed instruction
system.cpu00.op_class::SimdAesMix                   0      0.00%     63.58% # Class of executed instruction
system.cpu00.op_class::SimdSha1Hash                 0      0.00%     63.58% # Class of executed instruction
system.cpu00.op_class::SimdSha1Hash2                0      0.00%     63.58% # Class of executed instruction
system.cpu00.op_class::SimdSha256Hash               0      0.00%     63.58% # Class of executed instruction
system.cpu00.op_class::SimdSha256Hash2              0      0.00%     63.58% # Class of executed instruction
system.cpu00.op_class::SimdShaSigma2                0      0.00%     63.58% # Class of executed instruction
system.cpu00.op_class::SimdShaSigma3                0      0.00%     63.58% # Class of executed instruction
system.cpu00.op_class::MemRead                  20571     20.50%     84.08% # Class of executed instruction
system.cpu00.op_class::MemWrite                 15968     15.91%     99.99% # Class of executed instruction
system.cpu00.op_class::FloatMemRead                 0      0.00%     99.99% # Class of executed instruction
system.cpu00.op_class::FloatMemWrite               12      0.01%    100.00% # Class of executed instruction
system.cpu00.op_class::IprAccess                    0      0.00%    100.00% # Class of executed instruction
system.cpu00.op_class::InstPrefetch                 0      0.00%    100.00% # Class of executed instruction
system.cpu00.op_class::total                   100367                       # Class of executed instruction
system.cpu00.pwrStateClkGateDist::samples            1                       # Distribution of time spent in the clock gated state
system.cpu00.pwrStateClkGateDist::mean        2944000                       # Distribution of time spent in the clock gated state
system.cpu00.pwrStateClkGateDist::1000-5e+10            1    100.00%    100.00% # Distribution of time spent in the clock gated state
system.cpu00.pwrStateClkGateDist::min_value      2944000                       # Distribution of time spent in the clock gated state
system.cpu00.pwrStateClkGateDist::max_value      2944000                       # Distribution of time spent in the clock gated state
system.cpu00.pwrStateClkGateDist::total             1                       # Distribution of time spent in the clock gated state
system.cpu00.pwrStateResidencyTicks::ON     464960000                       # Cumulative time (in ticks) in various power states
system.cpu00.pwrStateResidencyTicks::CLK_GATED      2944000                       # Cumulative time (in ticks) in various power states
system.cpu00.workload.numSyscalls                  72                       # Number of system calls
system.cpu01.Branches                             897                       # Number of branches fetched
system.cpu01.committedInsts                      4781                       # Number of instructions committed
system.cpu01.committedOps                        4787                       # Number of ops (including micro ops) committed
system.cpu01.dtb.accesses                           0                       # DTB accesses
system.cpu01.dtb.hits                               0                       # DTB hits
system.cpu01.dtb.misses                             0                       # DTB misses
system.cpu01.dtb.pwrStateResidencyTicks::UNDEFINED    467904000                       # Cumulative time (in ticks) in various power states
system.cpu01.dtb.read_accesses                      0                       # DTB read accesses
system.cpu01.dtb.read_hits                          0                       # DTB read hits
system.cpu01.dtb.read_misses                        0                       # DTB read misses
system.cpu01.dtb.write_accesses                     0                       # DTB write accesses
system.cpu01.dtb.write_hits                         0                       # DTB write hits
system.cpu01.dtb.write_misses                       0                       # DTB write misses
system.cpu01.idle_fraction                   0.974174                       # Percentage of idle cycles
system.cpu01.itb.accesses                           0                       # DTB accesses
system.cpu01.itb.hits                               0                       # DTB hits
system.cpu01.itb.misses                             0                       # DTB misses
system.cpu01.itb.pwrStateResidencyTicks::UNDEFINED    467904000                       # Cumulative time (in ticks) in various power states
system.cpu01.itb.read_accesses                      0                       # DTB read accesses
system.cpu01.itb.read_hits                          0                       # DTB read hits
system.cpu01.itb.read_misses                        0                       # DTB read misses
system.cpu01.itb.write_accesses                     0                       # DTB write accesses
system.cpu01.itb.write_hits                         0                       # DTB write hits
system.cpu01.itb.write_misses                       0                       # DTB write misses
system.cpu01.not_idle_fraction               0.025826                       # Percentage of non-idle cycles
system.cpu01.numCycles                         935807                       # number of cpu cycles simulated
system.cpu01.numPwrStateTransitions                 2                       # Number of power state transitions
system.cpu01.numWorkItemsCompleted                  0                       # number of work items this cpu completed
system.cpu01.numWorkItemsStarted                    0                       # number of work items this cpu started
system.cpu01.num_busy_cycles             24167.976123                       # Number of busy cycles
system.cpu01.num_conditional_control_insts          469                       # number of instructions that are conditional controls
system.cpu01.num_fp_alu_accesses                   12                       # Number of float alu accesses
system.cpu01.num_fp_insts                          12                       # number of float instructions
system.cpu01.num_fp_register_reads                 12                       # number of times the floating registers were read
system.cpu01.num_fp_register_writes                 0                       # number of times the floating registers were written
system.cpu01.num_func_calls                       428                       # number of times a function call or return occured
system.cpu01.num_idle_cycles             911639.023877                       # Number of idle cycles
system.cpu01.num_int_alu_accesses                4704                       # Number of integer alu accesses
system.cpu01.num_int_insts                       4704                       # number of integer instructions
system.cpu01.num_int_register_reads              5419                       # number of times the integer registers were read
system.cpu01.num_int_register_writes             3488                       # number of times the integer registers were written
system.cpu01.num_load_insts                      1167                       # Number of load instructions
system.cpu01.num_mem_refs                        1732                       # number of memory refs
system.cpu01.num_store_insts                      565                       # Number of store instructions
system.cpu01.num_vec_alu_accesses                   0                       # Number of vector alu accesses
system.cpu01.num_vec_insts                          0                       # number of vector instructions
system.cpu01.num_vec_register_reads                 0                       # number of times the vector registers were read
system.cpu01.num_vec_register_writes                0                       # number of times the vector registers were written
system.cpu01.op_class::No_OpClass                  10      0.21%      0.21% # Class of executed instruction
system.cpu01.op_class::IntAlu                    3044     63.56%     63.77% # Class of executed instruction
system.cpu01.op_class::IntMult                      1      0.02%     63.79% # Class of executed instruction
system.cpu01.op_class::IntDiv                       2      0.04%     63.83% # Class of executed instruction
system.cpu01.op_class::FloatAdd                     0      0.00%     63.83% # Class of executed instruction
system.cpu01.op_class::FloatCmp                     0      0.00%     63.83% # Class of executed instruction
system.cpu01.op_class::FloatCvt                     0      0.00%     63.83% # Class of executed instruction
system.cpu01.op_class::FloatMult                    0      0.00%     63.83% # Class of executed instruction
system.cpu01.op_class::FloatMultAcc                 0      0.00%     63.83% # Class of executed instruction
system.cpu01.op_class::FloatDiv                     0      0.00%     63.83% # Class of executed instruction
system.cpu01.op_class::FloatMisc                    0      0.00%     63.83% # Class of executed instruction
system.cpu01.op_class::FloatSqrt                    0      0.00%     63.83% # Class of executed instruction
system.cpu01.op_class::SimdAdd                      0      0.00%     63.83% # Class of executed instruction
system.cpu01.op_class::SimdAddAcc                   0      0.00%     63.83% # Class of executed instruction
system.cpu01.op_class::SimdAlu                      0      0.00%     63.83% # Class of executed instruction
system.cpu01.op_class::SimdCmp                      0      0.00%     63.83% # Class of executed instruction
system.cpu01.op_class::SimdCvt                      0      0.00%     63.83% # Class of executed instruction
system.cpu01.op_class::SimdMisc                     0      0.00%     63.83% # Class of executed instruction
system.cpu01.op_class::SimdMult                     0      0.00%     63.83% # Class of executed instruction
system.cpu01.op_class::SimdMultAcc                  0      0.00%     63.83% # Class of executed instruction
system.cpu01.op_class::SimdShift                    0      0.00%     63.83% # Class of executed instruction
system.cpu01.op_class::SimdShiftAcc                 0      0.00%     63.83% # Class of executed instruction
system.cpu01.op_class::SimdSqrt                     0      0.00%     63.83% # Class of executed instruction
system.cpu01.op_class::SimdFloatAdd                 0      0.00%     63.83% # Class of executed instruction
system.cpu01.op_class::SimdFloatAlu                 0      0.00%     63.83% # Class of executed instruction
system.cpu01.op_class::SimdFloatCmp                 0      0.00%     63.83% # Class of executed instruction
system.cpu01.op_class::SimdFloatCvt                 0      0.00%     63.83% # Class of executed instruction
system.cpu01.op_class::SimdFloatDiv                 0      0.00%     63.83% # Class of executed instruction
system.cpu01.op_class::SimdFloatMisc                0      0.00%     63.83% # Class of executed instruction
system.cpu01.op_class::SimdFloatMult                0      0.00%     63.83% # Class of executed instruction
system.cpu01.op_class::SimdFloatMultAcc             0      0.00%     63.83% # Class of executed instruction
system.cpu01.op_class::SimdFloatSqrt                0      0.00%     63.83% # Class of executed instruction
system.cpu01.op_class::SimdAes                      0      0.00%     63.83% # Class of executed instruction
system.cpu01.op_class::SimdAesMix                   0      0.00%     63.83% # Class of executed instruction
system.cpu01.op_class::SimdSha1Hash                 0      0.00%     63.83% # Class of executed instruction
system.cpu01.op_class::SimdSha1Hash2                0      0.00%     63.83% # Class of executed instruction
system.cpu01.op_class::SimdSha256Hash               0      0.00%     63.83% # Class of executed instruction
system.cpu01.op_class::SimdSha256Hash2              0      0.00%     63.83% # Class of executed instruction
system.cpu01.op_class::SimdShaSigma2                0      0.00%     63.83% # Class of executed instruction
system.cpu01.op_class::SimdShaSigma3                0      0.00%     63.83% # Class of executed instruction
system.cpu01.op_class::MemRead                   1171     24.45%     88.29% # Class of executed instruction
system.cpu01.op_class::MemWrite                   549     11.46%     99.75% # Class of executed instruction
system.cpu01.op_class::FloatMemRead                 0      0.00%     99.75% # Class of executed instruction
system.cpu01.op_class::FloatMemWrite               12      0.25%    100.00% # Class of executed instruction
system.cpu01.op_class::IprAccess                    0      0.00%    100.00% # Class of executed instruction
system.cpu01.op_class::InstPrefetch                 0      0.00%    100.00% # Class of executed instruction
system.cpu01.op_class::total                     4789                       # Class of executed instruction
system.cpu01.pwrStateClkGateDist::samples            1                       # Distribution of time spent in the clock gated state
system.cpu01.pwrStateClkGateDist::mean       90581500                       # Distribution of time spent in the clock gated state
system.cpu01.pwrStateClkGateDist::1000-5e+10            1    100.00%    100.00% # Distribution of time spent in the clock gated state
system.cpu01.pwrStateClkGateDist::min_value     90581500                       # Distribution of time spent in the clock gated state
system.cpu01.pwrStateClkGateDist::max_value     90581500                       # Distribution of time spent in the clock gated state
system.cpu01.pwrStateClkGateDist::total             1                       # Distribution of time spent in the clock gated state
system.cpu01.pwrStateResidencyTicks::ON     377322500                       # Cumulative time (in ticks) in various power states
system.cpu01.pwrStateResidencyTicks::CLK_GATED     90581500                       # Cumulative time (in ticks) in various power states
system.cpu02.Branches                             893                       # Number of branches fetched
system.cpu02.committedInsts                      4760                       # Number of instructions committed
system.cpu02.committedOps                        4766                       # Number of ops (including micro ops) committed
system.cpu02.dtb.accesses                           0                       # DTB accesses
system.cpu02.dtb.hits                               0                       # DTB hits
system.cpu02.dtb.misses                             0                       # DTB misses
system.cpu02.dtb.pwrStateResidencyTicks::UNDEFINED    467904000                       # Cumulative time (in ticks) in various power states
system.cpu02.dtb.read_accesses                      0                       # DTB read accesses
system.cpu02.dtb.read_hits                          0                       # DTB read hits
system.cpu02.dtb.read_misses                        0                       # DTB read misses
system.cpu02.dtb.write_accesses                     0                       # DTB write accesses
system.cpu02.dtb.write_hits                         0                       # DTB write hits
system.cpu02.dtb.write_misses                       0                       # DTB write misses
system.cpu02.idle_fraction                   0.977890                       # Percentage of idle cycles
system.cpu02.itb.accesses                           0                       # DTB accesses
system.cpu02.itb.hits                               0                       # DTB hits
system.cpu02.itb.misses                             0                       # DTB misses
system.cpu02.itb.pwrStateResidencyTicks::UNDEFINED    467904000                       # Cumulative time (in ticks) in various power states
system.cpu02.itb.read_accesses                      0                       # DTB read accesses
system.cpu02.itb.read_hits                          0                       # DTB read hits
system.cpu02.itb.read_misses                        0                       # DTB read misses
system.cpu02.itb.write_accesses                     0                       # DTB write accesses
system.cpu02.itb.write_hits                         0                       # DTB write hits
system.cpu02.itb.write_misses                       0                       # DTB write misses
system.cpu02.not_idle_fraction               0.022110                       # Percentage of non-idle cycles
system.cpu02.numCycles                         935807                       # number of cpu cycles simulated
system.cpu02.numPwrStateTransitions                 2                       # Number of power state transitions
system.cpu02.numWorkItemsCompleted                  0                       # number of work items this cpu completed
system.cpu02.numWorkItemsStarted                    0                       # number of work items this cpu started
system.cpu02.num_busy_cycles             20690.979845                       # Number of busy cycles
system.cpu02.num_conditional_control_insts          468                       # number of instructions that are conditional controls
system.cpu02.num_fp_alu_accesses                   12                       # Number of float alu accesses
system.cpu02.num_fp_insts                          12                       # number of float instructions
system.cpu02.num_fp_register_reads                 12                       # number of times the floating registers were read
system.cpu02.num_fp_register_writes                 0                       # number of times the floating registers were written
system.cpu02.num_func_calls                       425                       # number of times a function call or return occured
system.cpu02.num_idle_cycles             915116.020155                       # Number of idle cycles
system.cpu02.num_int_alu_accesses                4684                       # Number of integer alu accesses
system.cpu02.num_int_insts                       4684                       # number of integer instructions
system.cpu02.num_int_register_reads              5398                       # number of times the integer registers were read
system.cpu02.num_int_register_writes             3472                       # number of times the integer registers were written
system.cpu02.num_load_insts                      1164                       # Number of load instructions
system.cpu02.num_mem_refs                        1727                       # number of memory refs
system.cpu02.num_store_insts                      563                       # Number of store instructions
system.cpu02.num_vec_alu_accesses                   0                       # Number of vector alu accesses
system.cpu02.num_vec_insts                          0                       # number of vector instructions
system.cpu02.num_vec_register_reads                 0                       # number of times the vector registers were read
system.cpu02.num_vec_register_writes                0                       # number of times the vector registers were written
system.cpu02.op_class::No_OpClass                  10      0.21%      0.21% # Class of executed instruction
system.cpu02.op_class::IntAlu                    3028     63.51%     63.72% # Class of executed instruction
system.cpu02.op_class::IntMult                      1      0.02%     63.74% # Class of executed instruction
system.cpu02.op_class::IntDiv                       2      0.04%     63.78% # Class of executed instruction
system.cpu02.op_class::FloatAdd                     0      0.00%     63.78% # Class of executed instruction
system.cpu02.op_class::FloatCmp                     0      0.00%     63.78% # Class of executed instruction
system.cpu02.op_class::FloatCvt                     0      0.00%     63.78% # Class of executed instruction
system.cpu02.op_class::FloatMult                    0      0.00%     63.78% # Class of executed instruction
system.cpu02.op_class::FloatMultAcc                 0      0.00%     63.78% # Class of executed instruction
system.cpu02.op_class::FloatDiv                     0      0.00%     63.78% # Class of executed instruction
system.cpu02.op_class::FloatMisc                    0      0.00%     63.78% # Class of executed instruction
system.cpu02.op_class::FloatSqrt                    0      0.00%     63.78% # Class of executed instruction
system.cpu02.op_class::SimdAdd                      0      0.00%     63.78% # Class of executed instruction
system.cpu02.op_class::SimdAddAcc                   0      0.00%     63.78% # Class of executed instruction
system.cpu02.op_class::SimdAlu                      0      0.00%     63.78% # Class of executed instruction
system.cpu02.op_class::SimdCmp                      0      0.00%     63.78% # Class of executed instruction
system.cpu02.op_class::SimdCvt                      0      0.00%     63.78% # Class of executed instruction
system.cpu02.op_class::SimdMisc                     0      0.00%     63.78% # Class of executed instruction
system.cpu02.op_class::SimdMult                     0      0.00%     63.78% # Class of executed instruction
system.cpu02.op_class::SimdMultAcc                  0      0.00%     63.78% # Class of executed instruction
system.cpu02.op_class::SimdShift                    0      0.00%     63.78% # Class of executed instruction
system.cpu02.op_class::SimdShiftAcc                 0      0.00%     63.78% # Class of executed instruction
system.cpu02.op_class::SimdSqrt                     0      0.00%     63.78% # Class of executed instruction
system.cpu02.op_class::SimdFloatAdd                 0      0.00%     63.78% # Class of executed instruction
system.cpu02.op_class::SimdFloatAlu                 0      0.00%     63.78% # Class of executed instruction
system.cpu02.op_class::SimdFloatCmp                 0      0.00%     63.78% # Class of executed instruction
system.cpu02.op_class::SimdFloatCvt                 0      0.00%     63.78% # Class of executed instruction
system.cpu02.op_class::SimdFloatDiv                 0      0.00%     63.78% # Class of executed instruction
system.cpu02.op_class::SimdFloatMisc                0      0.00%     63.78% # Class of executed instruction
system.cpu02.op_class::SimdFloatMult                0      0.00%     63.78% # Class of executed instruction
system.cpu02.op_class::SimdFloatMultAcc             0      0.00%     63.78% # Class of executed instruction
system.cpu02.op_class::SimdFloatSqrt                0      0.00%     63.78% # Class of executed instruction
system.cpu02.op_class::SimdAes                      0      0.00%     63.78% # Class of executed instruction
system.cpu02.op_class::SimdAesMix                   0      0.00%     63.78% # Class of executed instruction
system.cpu02.op_class::SimdSha1Hash                 0      0.00%     63.78% # Class of executed instruction
system.cpu02.op_class::SimdSha1Hash2                0      0.00%     63.78% # Class of executed instruction
system.cpu02.op_class::SimdSha256Hash               0      0.00%     63.78% # Class of executed instruction
system.cpu02.op_class::SimdSha256Hash2              0      0.00%     63.78% # Class of executed instruction
system.cpu02.op_class::SimdShaSigma2                0      0.00%     63.78% # Class of executed instruction
system.cpu02.op_class::SimdShaSigma3                0      0.00%     63.78% # Class of executed instruction
system.cpu02.op_class::MemRead                   1168     24.50%     88.28% # Class of executed instruction
system.cpu02.op_class::MemWrite                   547     11.47%     99.75% # Class of executed instruction
system.cpu02.op_class::FloatMemRead                 0      0.00%     99.75% # Class of executed instruction
system.cpu02.op_class::FloatMemWrite               12      0.25%    100.00% # Class of executed instruction
system.cpu02.op_class::IprAccess                    0      0.00%    100.00% # Class of executed instruction
system.cpu02.op_class::InstPrefetch                 0      0.00%    100.00% # Class of executed instruction
system.cpu02.op_class::total                     4768                       # Class of executed instruction
system.cpu02.pwrStateClkGateDist::samples            1                       # Distribution of time spent in the clock gated state
system.cpu02.pwrStateClkGateDist::mean       86319000                       # Distribution of time spent in the clock gated state
system.cpu02.pwrStateClkGateDist::1000-5e+10            1    100.00%    100.00% # Distribution of time spent in the clock gated state
system.cpu02.pwrStateClkGateDist::min_value     86319000                       # Distribution of time spent in the clock gated state
system.cpu02.pwrStateClkGateDist::max_value     86319000                       # Distribution of time spent in the clock gated state
system.cpu02.pwrStateClkGateDist::total             1                       # Distribution of time spent in the clock gated state
system.cpu02.pwrStateResidencyTicks::ON     381585000                       # Cumulative time (in ticks) in various power states
system.cpu02.pwrStateResidencyTicks::CLK_GATED     86319000                       # Cumulative time (in ticks) in various power states
system.cpu03.Branches                             894                       # Number of branches fetched
system.cpu03.committedInsts                      4746                       # Number of instructions committed
system.cpu03.committedOps                        4752                       # Number of ops (including micro ops) committed
system.cpu03.dtb.accesses                           0                       # DTB accesses
system.cpu03.dtb.hits                               0                       # DTB hits
system.cpu03.dtb.misses                             0                       # DTB misses
system.cpu03.dtb.pwrStateResidencyTicks::UNDEFINED    467904000                       # Cumulative time (in ticks) in various power states
system.cpu03.dtb.read_accesses                      0                       # DTB read accesses
system.cpu03.dtb.read_hits                          0                       # DTB read hits
system.cpu03.dtb.read_misses                        0                       # DTB read misses
system.cpu03.dtb.write_accesses                     0                       # DTB write accesses
system.cpu03.dtb.write_hits                         0                       # DTB write hits
system.cpu03.dtb.write_misses                       0                       # DTB write misses
system.cpu03.idle_fraction                   0.977313                       # Percentage of idle cycles
system.cpu03.itb.accesses                           0                       # DTB accesses
system.cpu03.itb.hits                               0                       # DTB hits
system.cpu03.itb.misses                             0                       # DTB misses
system.cpu03.itb.pwrStateResidencyTicks::UNDEFINED    467904000                       # Cumulative time (in ticks) in various power states
system.cpu03.itb.read_accesses                      0                       # DTB read accesses
system.cpu03.itb.read_hits                          0                       # DTB read hits
system.cpu03.itb.read_misses                        0                       # DTB read misses
system.cpu03.itb.write_accesses                     0                       # DTB write accesses
system.cpu03.itb.write_hits                         0                       # DTB write hits
system.cpu03.itb.write_misses                       0                       # DTB write misses
system.cpu03.not_idle_fraction               0.022687                       # Percentage of non-idle cycles
system.cpu03.numCycles                         935808                       # number of cpu cycles simulated
system.cpu03.numPwrStateTransitions                 2                       # Number of power state transitions
system.cpu03.numWorkItemsCompleted                  0                       # number of work items this cpu completed
system.cpu03.numWorkItemsStarted                    0                       # number of work items this cpu started
system.cpu03.num_busy_cycles             21231.001955                       # Number of busy cycles
system.cpu03.num_conditional_control_insts          453                       # number of instructions that are conditional controls
system.cpu03.num_fp_alu_accesses                   12                       # Number of float alu accesses
system.cpu03.num_fp_insts                          12                       # number of float instructions
system.cpu03.num_fp_register_reads                 12                       # number of times the floating registers were read
system.cpu03.num_fp_register_writes                 0                       # number of times the floating registers were written
system.cpu03.num_func_calls                       441                       # number of times a function call or return occured
system.cpu03.num_idle_cycles             914576.998045                       # Number of idle cycles
system.cpu03.num_int_alu_accesses                4655                       # Number of integer alu accesses
system.cpu03.num_int_insts                       4655                       # number of integer instructions
system.cpu03.num_int_register_reads              5366                       # number of times the integer registers were read
system.cpu03.num_int_register_writes             3456                       # number of times the integer registers were written
system.cpu03.num_load_insts                      1161                       # Number of load instructions
system.cpu03.num_mem_refs                        1722                       # number of memory refs
system.cpu03.num_store_insts                      561                       # Number of store instructions
system.cpu03.num_vec_alu_accesses                   0                       # Number of vector alu accesses
system.cpu03.num_vec_insts                          0                       # number of vector instructions
system.cpu03.num_vec_register_reads                 0                       # number of times the vector registers were read
system.cpu03.num_vec_register_writes                0                       # number of times the vector registers were written
system.cpu03.op_class::No_OpClass                  10      0.21%      0.21% # Class of executed instruction
system.cpu03.op_class::IntAlu                    3019     63.50%     63.71% # Class of executed instruction
system.cpu03.op_class::IntMult                      1      0.02%     63.74% # Class of executed instruction
system.cpu03.op_class::IntDiv                       2      0.04%     63.78% # Class of executed instruction
system.cpu03.op_class::FloatAdd                     0      0.00%     63.78% # Class of executed instruction
system.cpu03.op_class::FloatCmp                     0      0.00%     63.78% # Class of executed instruction
system.cpu03.op_class::FloatCvt                     0      0.00%     63.78% # Class of executed instruction
system.cpu03.op_class::FloatMult                    0      0.00%     63.78% # Class of executed instruction
system.cpu03.op_class::FloatMultAcc                 0      0.00%     63.78% # Class of executed instruction
system.cpu03.op_class::FloatDiv                     0      0.00%     63.78% # Class of executed instruction
system.cpu03.op_class::FloatMisc                    0      0.00%     63.78% # Class of executed instruction
system.cpu03.op_class::FloatSqrt                    0      0.00%     63.78% # Class of executed instruction
system.cpu03.op_class::SimdAdd                      0      0.00%     63.78% # Class of executed instruction
system.cpu03.op_class::SimdAddAcc                   0      0.00%     63.78% # Class of executed instruction
system.cpu03.op_class::SimdAlu                      0      0.00%     63.78% # Class of executed instruction
system.cpu03.op_class::SimdCmp                      0      0.00%     63.78% # Class of executed instruction
system.cpu03.op_class::SimdCvt                      0      0.00%     63.78% # Class of executed instruction
system.cpu03.op_class::SimdMisc                     0      0.00%     63.78% # Class of executed instruction
system.cpu03.op_class::SimdMult                     0      0.00%     63.78% # Class of executed instruction
system.cpu03.op_class::SimdMultAcc                  0      0.00%     63.78% # Class of executed instruction
system.cpu03.op_class::SimdShift                    0      0.00%     63.78% # Class of executed instruction
system.cpu03.op_class::SimdShiftAcc                 0      0.00%     63.78% # Class of executed instruction
system.cpu03.op_class::SimdSqrt                     0      0.00%     63.78% # Class of executed instruction
system.cpu03.op_class::SimdFloatAdd                 0      0.00%     63.78% # Class of executed instruction
system.cpu03.op_class::SimdFloatAlu                 0      0.00%     63.78% # Class of executed instruction
system.cpu03.op_class::SimdFloatCmp                 0      0.00%     63.78% # Class of executed instruction
system.cpu03.op_class::SimdFloatCvt                 0      0.00%     63.78% # Class of executed instruction
system.cpu03.op_class::SimdFloatDiv                 0      0.00%     63.78% # Class of executed instruction
system.cpu03.op_class::SimdFloatMisc                0      0.00%     63.78% # Class of executed instruction
system.cpu03.op_class::SimdFloatMult                0      0.00%     63.78% # Class of executed instruction
system.cpu03.op_class::SimdFloatMultAcc             0      0.00%     63.78% # Class of executed instruction
system.cpu03.op_class::SimdFloatSqrt                0      0.00%     63.78% # Class of executed instruction
system.cpu03.op_class::SimdAes                      0      0.00%     63.78% # Class of executed instruction
system.cpu03.op_class::SimdAesMix                   0      0.00%     63.78% # Class of executed instruction
system.cpu03.op_class::SimdSha1Hash                 0      0.00%     63.78% # Class of executed instruction
system.cpu03.op_class::SimdSha1Hash2                0      0.00%     63.78% # Class of executed instruction
system.cpu03.op_class::SimdSha256Hash               0      0.00%     63.78% # Class of executed instruction
system.cpu03.op_class::SimdSha256Hash2              0      0.00%     63.78% # Class of executed instruction
system.cpu03.op_class::SimdShaSigma2                0      0.00%     63.78% # Class of executed instruction
system.cpu03.op_class::SimdShaSigma3                0      0.00%     63.78% # Class of executed instruction
system.cpu03.op_class::MemRead                   1165     24.51%     88.28% # Class of executed instruction
system.cpu03.op_class::MemWrite                   545     11.46%     99.75% # Class of executed instruction
system.cpu03.op_class::FloatMemRead                 0      0.00%     99.75% # Class of executed instruction
system.cpu03.op_class::FloatMemWrite               12      0.25%    100.00% # Class of executed instruction
system.cpu03.op_class::IprAccess                    0      0.00%    100.00% # Class of executed instruction
system.cpu03.op_class::InstPrefetch                 0      0.00%    100.00% # Class of executed instruction
system.cpu03.op_class::total                     4754                       # Class of executed instruction
system.cpu03.pwrStateClkGateDist::samples            1                       # Distribution of time spent in the clock gated state
system.cpu03.pwrStateClkGateDist::mean       79509500                       # Distribution of time spent in the clock gated state
system.cpu03.pwrStateClkGateDist::1000-5e+10            1    100.00%    100.00% # Distribution of time spent in the clock gated state
system.cpu03.pwrStateClkGateDist::min_value     79509500                       # Distribution of time spent in the clock gated state
system.cpu03.pwrStateClkGateDist::max_value     79509500                       # Distribution of time spent in the clock gated state
system.cpu03.pwrStateClkGateDist::total             1                       # Distribution of time spent in the clock gated state
system.cpu03.pwrStateResidencyTicks::ON     388394500                       # Cumulative time (in ticks) in various power states
system.cpu03.pwrStateResidencyTicks::CLK_GATED     79509500                       # Cumulative time (in ticks) in various power states
system.cpu04.Branches                             894                       # Number of branches fetched
system.cpu04.committedInsts                      4720                       # Number of instructions committed
system.cpu04.committedOps                        4726                       # Number of ops (including micro ops) committed
system.cpu04.dtb.accesses                           0                       # DTB accesses
system.cpu04.dtb.hits                               0                       # DTB hits
system.cpu04.dtb.misses                             0                       # DTB misses
system.cpu04.dtb.pwrStateResidencyTicks::UNDEFINED    467904000                       # Cumulative time (in ticks) in various power states
system.cpu04.dtb.read_accesses                      0                       # DTB read accesses
system.cpu04.dtb.read_hits                          0                       # DTB read hits
system.cpu04.dtb.read_misses                        0                       # DTB read misses
system.cpu04.dtb.write_accesses                     0                       # DTB write accesses
system.cpu04.dtb.write_hits                         0                       # DTB write hits
system.cpu04.dtb.write_misses                       0                       # DTB write misses
system.cpu04.idle_fraction                   0.977708                       # Percentage of idle cycles
system.cpu04.itb.accesses                           0                       # DTB accesses
system.cpu04.itb.hits                               0                       # DTB hits
system.cpu04.itb.misses                             0                       # DTB misses
system.cpu04.itb.pwrStateResidencyTicks::UNDEFINED    467904000                       # Cumulative time (in ticks) in various power states
system.cpu04.itb.read_accesses                      0                       # DTB read accesses
system.cpu04.itb.read_hits                          0                       # DTB read hits
system.cpu04.itb.read_misses                        0                       # DTB read misses
system.cpu04.itb.write_accesses                     0                       # DTB write accesses
system.cpu04.itb.write_hits                         0                       # DTB write hits
system.cpu04.itb.write_misses                       0                       # DTB write misses
system.cpu04.not_idle_fraction               0.022292                       # Percentage of non-idle cycles
system.cpu04.numCycles                         935808                       # number of cpu cycles simulated
system.cpu04.numPwrStateTransitions                 2                       # Number of power state transitions
system.cpu04.numWorkItemsCompleted                  0                       # number of work items this cpu completed
system.cpu04.numWorkItemsStarted                    0                       # number of work items this cpu started
system.cpu04.num_busy_cycles             20861.001955                       # Number of busy cycles
system.cpu04.num_conditional_control_insts          452                       # number of instructions that are conditional controls
system.cpu04.num_fp_alu_accesses                   12                       # Number of float alu accesses
system.cpu04.num_fp_insts                          12                       # number of float instructions
system.cpu04.num_fp_register_reads                 12                       # number of times the floating registers were read
system.cpu04.num_fp_register_writes                 0                       # number of times the floating registers were written
system.cpu04.num_func_calls                       442                       # number of times a function call or return occured
system.cpu04.num_idle_cycles             914946.998045                       # Number of idle cycles
system.cpu04.num_int_alu_accesses                4626                       # Number of integer alu accesses
system.cpu04.num_int_insts                       4626                       # number of integer instructions
system.cpu04.num_int_register_reads              5335                       # number of times the integer registers were read
system.cpu04.num_int_register_writes             3433                       # number of times the integer registers were written
system.cpu04.num_load_insts                      1152                       # Number of load instructions
system.cpu04.num_mem_refs                        1708                       # number of memory refs
system.cpu04.num_store_insts                      556                       # Number of store instructions
system.cpu04.num_vec_alu_accesses                   0                       # Number of vector alu accesses
system.cpu04.num_vec_insts                          0                       # number of vector instructions
system.cpu04.num_vec_register_reads                 0                       # number of times the vector registers were read
system.cpu04.num_vec_register_writes                0                       # number of times the vector registers were written
system.cpu04.op_class::No_OpClass                  10      0.21%      0.21% # Class of executed instruction
system.cpu04.op_class::IntAlu                    3007     63.60%     63.81% # Class of executed instruction
system.cpu04.op_class::IntMult                      1      0.02%     63.83% # Class of executed instruction
system.cpu04.op_class::IntDiv                       2      0.04%     63.87% # Class of executed instruction
system.cpu04.op_class::FloatAdd                     0      0.00%     63.87% # Class of executed instruction
system.cpu04.op_class::FloatCmp                     0      0.00%     63.87% # Class of executed instruction
system.cpu04.op_class::FloatCvt                     0      0.00%     63.87% # Class of executed instruction
system.cpu04.op_class::FloatMult                    0      0.00%     63.87% # Class of executed instruction
system.cpu04.op_class::FloatMultAcc                 0      0.00%     63.87% # Class of executed instruction
system.cpu04.op_class::FloatDiv                     0      0.00%     63.87% # Class of executed instruction
system.cpu04.op_class::FloatMisc                    0      0.00%     63.87% # Class of executed instruction
system.cpu04.op_class::FloatSqrt                    0      0.00%     63.87% # Class of executed instruction
system.cpu04.op_class::SimdAdd                      0      0.00%     63.87% # Class of executed instruction
system.cpu04.op_class::SimdAddAcc                   0      0.00%     63.87% # Class of executed instruction
system.cpu04.op_class::SimdAlu                      0      0.00%     63.87% # Class of executed instruction
system.cpu04.op_class::SimdCmp                      0      0.00%     63.87% # Class of executed instruction
system.cpu04.op_class::SimdCvt                      0      0.00%     63.87% # Class of executed instruction
system.cpu04.op_class::SimdMisc                     0      0.00%     63.87% # Class of executed instruction
system.cpu04.op_class::SimdMult                     0      0.00%     63.87% # Class of executed instruction
system.cpu04.op_class::SimdMultAcc                  0      0.00%     63.87% # Class of executed instruction
system.cpu04.op_class::SimdShift                    0      0.00%     63.87% # Class of executed instruction
system.cpu04.op_class::SimdShiftAcc                 0      0.00%     63.87% # Class of executed instruction
system.cpu04.op_class::SimdSqrt                     0      0.00%     63.87% # Class of executed instruction
system.cpu04.op_class::SimdFloatAdd                 0      0.00%     63.87% # Class of executed instruction
system.cpu04.op_class::SimdFloatAlu                 0      0.00%     63.87% # Class of executed instruction
system.cpu04.op_class::SimdFloatCmp                 0      0.00%     63.87% # Class of executed instruction
system.cpu04.op_class::SimdFloatCvt                 0      0.00%     63.87% # Class of executed instruction
system.cpu04.op_class::SimdFloatDiv                 0      0.00%     63.87% # Class of executed instruction
system.cpu04.op_class::SimdFloatMisc                0      0.00%     63.87% # Class of executed instruction
system.cpu04.op_class::SimdFloatMult                0      0.00%     63.87% # Class of executed instruction
system.cpu04.op_class::SimdFloatMultAcc             0      0.00%     63.87% # Class of executed instruction
system.cpu04.op_class::SimdFloatSqrt                0      0.00%     63.87% # Class of executed instruction
system.cpu04.op_class::SimdAes                      0      0.00%     63.87% # Class of executed instruction
system.cpu04.op_class::SimdAesMix                   0      0.00%     63.87% # Class of executed instruction
system.cpu04.op_class::SimdSha1Hash                 0      0.00%     63.87% # Class of executed instruction
system.cpu04.op_class::SimdSha1Hash2                0      0.00%     63.87% # Class of executed instruction
system.cpu04.op_class::SimdSha256Hash               0      0.00%     63.87% # Class of executed instruction
system.cpu04.op_class::SimdSha256Hash2              0      0.00%     63.87% # Class of executed instruction
system.cpu04.op_class::SimdShaSigma2                0      0.00%     63.87% # Class of executed instruction
system.cpu04.op_class::SimdShaSigma3                0      0.00%     63.87% # Class of executed instruction
system.cpu04.op_class::MemRead                   1156     24.45%     88.32% # Class of executed instruction
system.cpu04.op_class::MemWrite                   540     11.42%     99.75% # Class of executed instruction
system.cpu04.op_class::FloatMemRead                 0      0.00%     99.75% # Class of executed instruction
system.cpu04.op_class::FloatMemWrite               12      0.25%    100.00% # Class of executed instruction
system.cpu04.op_class::IprAccess                    0      0.00%    100.00% # Class of executed instruction
system.cpu04.op_class::InstPrefetch                 0      0.00%    100.00% # Class of executed instruction
system.cpu04.op_class::total                     4728                       # Class of executed instruction
system.cpu04.pwrStateClkGateDist::samples            1                       # Distribution of time spent in the clock gated state
system.cpu04.pwrStateClkGateDist::mean       72591500                       # Distribution of time spent in the clock gated state
system.cpu04.pwrStateClkGateDist::1000-5e+10            1    100.00%    100.00% # Distribution of time spent in the clock gated state
system.cpu04.pwrStateClkGateDist::min_value     72591500                       # Distribution of time spent in the clock gated state
system.cpu04.pwrStateClkGateDist::max_value     72591500                       # Distribution of time spent in the clock gated state
system.cpu04.pwrStateClkGateDist::total             1                       # Distribution of time spent in the clock gated state
system.cpu04.pwrStateResidencyTicks::ON     395312500                       # Cumulative time (in ticks) in various power states
system.cpu04.pwrStateResidencyTicks::CLK_GATED     72591500                       # Cumulative time (in ticks) in various power states
system.cpu05.Branches                             899                       # Number of branches fetched
system.cpu05.committedInsts                      4757                       # Number of instructions committed
system.cpu05.committedOps                        4763                       # Number of ops (including micro ops) committed
system.cpu05.dtb.accesses                           0                       # DTB accesses
system.cpu05.dtb.hits                               0                       # DTB hits
system.cpu05.dtb.misses                             0                       # DTB misses
system.cpu05.dtb.pwrStateResidencyTicks::UNDEFINED    467904000                       # Cumulative time (in ticks) in various power states
system.cpu05.dtb.read_accesses                      0                       # DTB read accesses
system.cpu05.dtb.read_hits                          0                       # DTB read hits
system.cpu05.dtb.read_misses                        0                       # DTB read misses
system.cpu05.dtb.write_accesses                     0                       # DTB write accesses
system.cpu05.dtb.write_hits                         0                       # DTB write hits
system.cpu05.dtb.write_misses                       0                       # DTB write misses
system.cpu05.idle_fraction                   0.978239                       # Percentage of idle cycles
system.cpu05.itb.accesses                           0                       # DTB accesses
system.cpu05.itb.hits                               0                       # DTB hits
system.cpu05.itb.misses                             0                       # DTB misses
system.cpu05.itb.pwrStateResidencyTicks::UNDEFINED    467904000                       # Cumulative time (in ticks) in various power states
system.cpu05.itb.read_accesses                      0                       # DTB read accesses
system.cpu05.itb.read_hits                          0                       # DTB read hits
system.cpu05.itb.read_misses                        0                       # DTB read misses
system.cpu05.itb.write_accesses                     0                       # DTB write accesses
system.cpu05.itb.write_hits                         0                       # DTB write hits
system.cpu05.itb.write_misses                       0                       # DTB write misses
system.cpu05.not_idle_fraction               0.021761                       # Percentage of non-idle cycles
system.cpu05.numCycles                         935807                       # number of cpu cycles simulated
system.cpu05.numPwrStateTransitions                 2                       # Number of power state transitions
system.cpu05.numWorkItemsCompleted                  0                       # number of work items this cpu completed
system.cpu05.numWorkItemsStarted                    0                       # number of work items this cpu started
system.cpu05.num_busy_cycles             20363.980196                       # Number of busy cycles
system.cpu05.num_conditional_control_insts          459                       # number of instructions that are conditional controls
system.cpu05.num_fp_alu_accesses                   12                       # Number of float alu accesses
system.cpu05.num_fp_insts                          12                       # number of float instructions
system.cpu05.num_fp_register_reads                 12                       # number of times the floating registers were read
system.cpu05.num_fp_register_writes                 0                       # number of times the floating registers were written
system.cpu05.num_func_calls                       440                       # number of times a function call or return occured
system.cpu05.num_idle_cycles             915443.019804                       # Number of idle cycles
system.cpu05.num_int_alu_accesses                4667                       # Number of integer alu accesses
system.cpu05.num_int_insts                       4667                       # number of integer instructions
system.cpu05.num_int_register_reads              5382                       # number of times the integer registers were read
system.cpu05.num_int_register_writes             3462                       # number of times the integer registers were written
system.cpu05.num_load_insts                      1162                       # Number of load instructions
system.cpu05.num_mem_refs                        1723                       # number of memory refs
system.cpu05.num_store_insts                      561                       # Number of store instructions
system.cpu05.num_vec_alu_accesses                   0                       # Number of vector alu accesses
system.cpu05.num_vec_insts                          0                       # number of vector instructions
system.cpu05.num_vec_register_reads                 0                       # number of times the vector registers were read
system.cpu05.num_vec_register_writes                0                       # number of times the vector registers were written
system.cpu05.op_class::No_OpClass                  10      0.21%      0.21% # Class of executed instruction
system.cpu05.op_class::IntAlu                    3029     63.57%     63.78% # Class of executed instruction
system.cpu05.op_class::IntMult                      1      0.02%     63.80% # Class of executed instruction
system.cpu05.op_class::IntDiv                       2      0.04%     63.84% # Class of executed instruction
system.cpu05.op_class::FloatAdd                     0      0.00%     63.84% # Class of executed instruction
system.cpu05.op_class::FloatCmp                     0      0.00%     63.84% # Class of executed instruction
system.cpu05.op_class::FloatCvt                     0      0.00%     63.84% # Class of executed instruction
system.cpu05.op_class::FloatMult                    0      0.00%     63.84% # Class of executed instruction
system.cpu05.op_class::FloatMultAcc                 0      0.00%     63.84% # Class of executed instruction
system.cpu05.op_class::FloatDiv                     0      0.00%     63.84% # Class of executed instruction
system.cpu05.op_class::FloatMisc                    0      0.00%     63.84% # Class of executed instruction
system.cpu05.op_class::FloatSqrt                    0      0.00%     63.84% # Class of executed instruction
system.cpu05.op_class::SimdAdd                      0      0.00%     63.84% # Class of executed instruction
system.cpu05.op_class::SimdAddAcc                   0      0.00%     63.84% # Class of executed instruction
system.cpu05.op_class::SimdAlu                      0      0.00%     63.84% # Class of executed instruction
system.cpu05.op_class::SimdCmp                      0      0.00%     63.84% # Class of executed instruction
system.cpu05.op_class::SimdCvt                      0      0.00%     63.84% # Class of executed instruction
system.cpu05.op_class::SimdMisc                     0      0.00%     63.84% # Class of executed instruction
system.cpu05.op_class::SimdMult                     0      0.00%     63.84% # Class of executed instruction
system.cpu05.op_class::SimdMultAcc                  0      0.00%     63.84% # Class of executed instruction
system.cpu05.op_class::SimdShift                    0      0.00%     63.84% # Class of executed instruction
system.cpu05.op_class::SimdShiftAcc                 0      0.00%     63.84% # Class of executed instruction
system.cpu05.op_class::SimdSqrt                     0      0.00%     63.84% # Class of executed instruction
system.cpu05.op_class::SimdFloatAdd                 0      0.00%     63.84% # Class of executed instruction
system.cpu05.op_class::SimdFloatAlu                 0      0.00%     63.84% # Class of executed instruction
system.cpu05.op_class::SimdFloatCmp                 0      0.00%     63.84% # Class of executed instruction
system.cpu05.op_class::SimdFloatCvt                 0      0.00%     63.84% # Class of executed instruction
system.cpu05.op_class::SimdFloatDiv                 0      0.00%     63.84% # Class of executed instruction
system.cpu05.op_class::SimdFloatMisc                0      0.00%     63.84% # Class of executed instruction
system.cpu05.op_class::SimdFloatMult                0      0.00%     63.84% # Class of executed instruction
system.cpu05.op_class::SimdFloatMultAcc             0      0.00%     63.84% # Class of executed instruction
system.cpu05.op_class::SimdFloatSqrt                0      0.00%     63.84% # Class of executed instruction
system.cpu05.op_class::SimdAes                      0      0.00%     63.84% # Class of executed instruction
system.cpu05.op_class::SimdAesMix                   0      0.00%     63.84% # Class of executed instruction
system.cpu05.op_class::SimdSha1Hash                 0      0.00%     63.84% # Class of executed instruction
system.cpu05.op_class::SimdSha1Hash2                0      0.00%     63.84% # Class of executed instruction
system.cpu05.op_class::SimdSha256Hash               0      0.00%     63.84% # Class of executed instruction
system.cpu05.op_class::SimdSha256Hash2              0      0.00%     63.84% # Class of executed instruction
system.cpu05.op_class::SimdShaSigma2                0      0.00%     63.84% # Class of executed instruction
system.cpu05.op_class::SimdShaSigma3                0      0.00%     63.84% # Class of executed instruction
system.cpu05.op_class::MemRead                   1166     24.47%     88.31% # Class of executed instruction
system.cpu05.op_class::MemWrite                   545     11.44%     99.75% # Class of executed instruction
system.cpu05.op_class::FloatMemRead                 0      0.00%     99.75% # Class of executed instruction
system.cpu05.op_class::FloatMemWrite               12      0.25%    100.00% # Class of executed instruction
system.cpu05.op_class::IprAccess                    0      0.00%    100.00% # Class of executed instruction
system.cpu05.op_class::InstPrefetch                 0      0.00%    100.00% # Class of executed instruction
system.cpu05.op_class::total                     4765                       # Class of executed instruction
system.cpu05.pwrStateClkGateDist::samples            1                       # Distribution of time spent in the clock gated state
system.cpu05.pwrStateClkGateDist::mean       66867000                       # Distribution of time spent in the clock gated state
system.cpu05.pwrStateClkGateDist::1000-5e+10            1    100.00%    100.00% # Distribution of time spent in the clock gated state
system.cpu05.pwrStateClkGateDist::min_value     66867000                       # Distribution of time spent in the clock gated state
system.cpu05.pwrStateClkGateDist::max_value     66867000                       # Distribution of time spent in the clock gated state
system.cpu05.pwrStateClkGateDist::total             1                       # Distribution of time spent in the clock gated state
system.cpu05.pwrStateResidencyTicks::ON     401037000                       # Cumulative time (in ticks) in various power states
system.cpu05.pwrStateResidencyTicks::CLK_GATED     66867000                       # Cumulative time (in ticks) in various power states
system.cpu06.Branches                             888                       # Number of branches fetched
system.cpu06.committedInsts                      4699                       # Number of instructions committed
system.cpu06.committedOps                        4705                       # Number of ops (including micro ops) committed
system.cpu06.dtb.accesses                           0                       # DTB accesses
system.cpu06.dtb.hits                               0                       # DTB hits
system.cpu06.dtb.misses                             0                       # DTB misses
system.cpu06.dtb.pwrStateResidencyTicks::UNDEFINED    467904000                       # Cumulative time (in ticks) in various power states
system.cpu06.dtb.read_accesses                      0                       # DTB read accesses
system.cpu06.dtb.read_hits                          0                       # DTB read hits
system.cpu06.dtb.read_misses                        0                       # DTB read misses
system.cpu06.dtb.write_accesses                     0                       # DTB write accesses
system.cpu06.dtb.write_hits                         0                       # DTB write hits
system.cpu06.dtb.write_misses                       0                       # DTB write misses
system.cpu06.idle_fraction                   0.978217                       # Percentage of idle cycles
system.cpu06.itb.accesses                           0                       # DTB accesses
system.cpu06.itb.hits                               0                       # DTB hits
system.cpu06.itb.misses                             0                       # DTB misses
system.cpu06.itb.pwrStateResidencyTicks::UNDEFINED    467904000                       # Cumulative time (in ticks) in various power states
system.cpu06.itb.read_accesses                      0                       # DTB read accesses
system.cpu06.itb.read_hits                          0                       # DTB read hits
system.cpu06.itb.read_misses                        0                       # DTB read misses
system.cpu06.itb.write_accesses                     0                       # DTB write accesses
system.cpu06.itb.write_hits                         0                       # DTB write hits
system.cpu06.itb.write_misses                       0                       # DTB write misses
system.cpu06.not_idle_fraction               0.021783                       # Percentage of non-idle cycles
system.cpu06.numCycles                         935807                       # number of cpu cycles simulated
system.cpu06.numPwrStateTransitions                 2                       # Number of power state transitions
system.cpu06.numWorkItemsCompleted                  0                       # number of work items this cpu completed
system.cpu06.numWorkItemsStarted                    0                       # number of work items this cpu started
system.cpu06.num_busy_cycles             20384.980173                       # Number of busy cycles
system.cpu06.num_conditional_control_insts          450                       # number of instructions that are conditional controls
system.cpu06.num_fp_alu_accesses                   12                       # Number of float alu accesses
system.cpu06.num_fp_insts                          12                       # number of float instructions
system.cpu06.num_fp_register_reads                 12                       # number of times the floating registers were read
system.cpu06.num_fp_register_writes                 0                       # number of times the floating registers were written
system.cpu06.num_func_calls                       438                       # number of times a function call or return occured
system.cpu06.num_idle_cycles             915422.019827                       # Number of idle cycles
system.cpu06.num_int_alu_accesses                4607                       # Number of integer alu accesses
system.cpu06.num_int_insts                       4607                       # number of integer instructions
system.cpu06.num_int_register_reads              5314                       # number of times the integer registers were read
system.cpu06.num_int_register_writes             3419                       # number of times the integer registers were written
system.cpu06.num_load_insts                      1148                       # Number of load instructions
system.cpu06.num_mem_refs                        1703                       # number of memory refs
system.cpu06.num_store_insts                      555                       # Number of store instructions
system.cpu06.num_vec_alu_accesses                   0                       # Number of vector alu accesses
system.cpu06.num_vec_insts                          0                       # number of vector instructions
system.cpu06.num_vec_register_reads                 0                       # number of times the vector registers were read
system.cpu06.num_vec_register_writes                0                       # number of times the vector registers were written
system.cpu06.op_class::No_OpClass                  10      0.21%      0.21% # Class of executed instruction
system.cpu06.op_class::IntAlu                    2991     63.54%     63.76% # Class of executed instruction
system.cpu06.op_class::IntMult                      1      0.02%     63.78% # Class of executed instruction
system.cpu06.op_class::IntDiv                       2      0.04%     63.82% # Class of executed instruction
system.cpu06.op_class::FloatAdd                     0      0.00%     63.82% # Class of executed instruction
system.cpu06.op_class::FloatCmp                     0      0.00%     63.82% # Class of executed instruction
system.cpu06.op_class::FloatCvt                     0      0.00%     63.82% # Class of executed instruction
system.cpu06.op_class::FloatMult                    0      0.00%     63.82% # Class of executed instruction
system.cpu06.op_class::FloatMultAcc                 0      0.00%     63.82% # Class of executed instruction
system.cpu06.op_class::FloatDiv                     0      0.00%     63.82% # Class of executed instruction
system.cpu06.op_class::FloatMisc                    0      0.00%     63.82% # Class of executed instruction
system.cpu06.op_class::FloatSqrt                    0      0.00%     63.82% # Class of executed instruction
system.cpu06.op_class::SimdAdd                      0      0.00%     63.82% # Class of executed instruction
system.cpu06.op_class::SimdAddAcc                   0      0.00%     63.82% # Class of executed instruction
system.cpu06.op_class::SimdAlu                      0      0.00%     63.82% # Class of executed instruction
system.cpu06.op_class::SimdCmp                      0      0.00%     63.82% # Class of executed instruction
system.cpu06.op_class::SimdCvt                      0      0.00%     63.82% # Class of executed instruction
system.cpu06.op_class::SimdMisc                     0      0.00%     63.82% # Class of executed instruction
system.cpu06.op_class::SimdMult                     0      0.00%     63.82% # Class of executed instruction
system.cpu06.op_class::SimdMultAcc                  0      0.00%     63.82% # Class of executed instruction
system.cpu06.op_class::SimdShift                    0      0.00%     63.82% # Class of executed instruction
system.cpu06.op_class::SimdShiftAcc                 0      0.00%     63.82% # Class of executed instruction
system.cpu06.op_class::SimdSqrt                     0      0.00%     63.82% # Class of executed instruction
system.cpu06.op_class::SimdFloatAdd                 0      0.00%     63.82% # Class of executed instruction
system.cpu06.op_class::SimdFloatAlu                 0      0.00%     63.82% # Class of executed instruction
system.cpu06.op_class::SimdFloatCmp                 0      0.00%     63.82% # Class of executed instruction
system.cpu06.op_class::SimdFloatCvt                 0      0.00%     63.82% # Class of executed instruction
system.cpu06.op_class::SimdFloatDiv                 0      0.00%     63.82% # Class of executed instruction
system.cpu06.op_class::SimdFloatMisc                0      0.00%     63.82% # Class of executed instruction
system.cpu06.op_class::SimdFloatMult                0      0.00%     63.82% # Class of executed instruction
system.cpu06.op_class::SimdFloatMultAcc             0      0.00%     63.82% # Class of executed instruction
system.cpu06.op_class::SimdFloatSqrt                0      0.00%     63.82% # Class of executed instruction
system.cpu06.op_class::SimdAes                      0      0.00%     63.82% # Class of executed instruction
system.cpu06.op_class::SimdAesMix                   0      0.00%     63.82% # Class of executed instruction
system.cpu06.op_class::SimdSha1Hash                 0      0.00%     63.82% # Class of executed instruction
system.cpu06.op_class::SimdSha1Hash2                0      0.00%     63.82% # Class of executed instruction
system.cpu06.op_class::SimdSha256Hash               0      0.00%     63.82% # Class of executed instruction
system.cpu06.op_class::SimdSha256Hash2              0      0.00%     63.82% # Class of executed instruction
system.cpu06.op_class::SimdShaSigma2                0      0.00%     63.82% # Class of executed instruction
system.cpu06.op_class::SimdShaSigma3                0      0.00%     63.82% # Class of executed instruction
system.cpu06.op_class::MemRead                   1152     24.47%     88.29% # Class of executed instruction
system.cpu06.op_class::MemWrite                   539     11.45%     99.75% # Class of executed instruction
system.cpu06.op_class::FloatMemRead                 0      0.00%     99.75% # Class of executed instruction
system.cpu06.op_class::FloatMemWrite               12      0.25%    100.00% # Class of executed instruction
system.cpu06.op_class::IprAccess                    0      0.00%    100.00% # Class of executed instruction
system.cpu06.op_class::InstPrefetch                 0      0.00%    100.00% # Class of executed instruction
system.cpu06.op_class::total                     4707                       # Class of executed instruction
system.cpu06.pwrStateClkGateDist::samples            1                       # Distribution of time spent in the clock gated state
system.cpu06.pwrStateClkGateDist::mean       60519500                       # Distribution of time spent in the clock gated state
system.cpu06.pwrStateClkGateDist::1000-5e+10            1    100.00%    100.00% # Distribution of time spent in the clock gated state
system.cpu06.pwrStateClkGateDist::min_value     60519500                       # Distribution of time spent in the clock gated state
[...]
system.ruby.network.int_links39.credit_link.pwrStateResidencyTicks::UNDEFINED    467904000                       # Cumulative time (in ticks) in various power states
system.ruby.network.int_links39.network_link.pwrStateResidencyTicks::UNDEFINED    467904000                       # Cumulative time (in ticks) in various power states
system.ruby.network.int_links40.credit_link.pwrStateResidencyTicks::UNDEFINED    467904000                       # Cumulative time (in ticks) in various power states
system.ruby.network.int_links40.network_link.pwrStateResidencyTicks::UNDEFINED    467904000                       # Cumulative time (in ticks) in various power states
system.ruby.network.int_links41.credit_link.pwrStateResidencyTicks::UNDEFINED    467904000                       # Cumulative time (in ticks) in various power states
system.ruby.network.int_links41.network_link.pwrStateResidencyTicks::UNDEFINED    467904000                       # Cumulative time (in ticks) in various power states
system.ruby.network.int_links42.credit_link.pwrStateResidencyTicks::UNDEFINED    467904000                       # Cumulative time (in ticks) in various power states
system.ruby.network.int_links42.network_link.pwrStateResidencyTicks::UNDEFINED    467904000                       # Cumulative time (in ticks) in various power states
system.ruby.network.int_links43.credit_link.pwrStateResidencyTicks::UNDEFINED    467904000                       # Cumulative time (in ticks) in various power states
system.ruby.network.int_links43.network_link.pwrStateResidencyTicks::UNDEFINED    467904000                       # Cumulative time (in ticks) in various power states
system.ruby.network.int_links44.credit_link.pwrStateResidencyTicks::UNDEFINED    467904000                       # Cumulative time (in ticks) in various power states
system.ruby.network.int_links44.network_link.pwrStateResidencyTicks::UNDEFINED    467904000                       # Cumulative time (in ticks) in various power states
system.ruby.network.int_links45.credit_link.pwrStateResidencyTicks::UNDEFINED    467904000                       # Cumulative time (in ticks) in various power states
system.ruby.network.int_links45.network_link.pwrStateResidencyTicks::UNDEFINED    467904000                       # Cumulative time (in ticks) in various power states
system.ruby.network.int_links46.credit_link.pwrStateResidencyTicks::UNDEFINED    467904000                       # Cumulative time (in ticks) in various power states
system.ruby.network.int_links46.network_link.pwrStateResidencyTicks::UNDEFINED    467904000                       # Cumulative time (in ticks) in various power states
system.ruby.network.int_links47.credit_link.pwrStateResidencyTicks::UNDEFINED    467904000                       # Cumulative time (in ticks) in various power states
system.ruby.network.int_links47.network_link.pwrStateResidencyTicks::UNDEFINED    467904000                       # Cumulative time (in ticks) in various power states
system.ruby.network.netifs00.pwrStateResidencyTicks::UNDEFINED    467904000                       # Cumulative time (in ticks) in various power states
system.ruby.network.netifs01.pwrStateResidencyTicks::UNDEFINED    467904000                       # Cumulative time (in ticks) in various power states
system.ruby.network.netifs02.pwrStateResidencyTicks::UNDEFINED    467904000                       # Cumulative time (in ticks) in various power states
system.ruby.network.netifs03.pwrStateResidencyTicks::UNDEFINED    467904000                       # Cumulative time (in ticks) in various power states
system.ruby.network.netifs04.pwrStateResidencyTicks::UNDEFINED    467904000                       # Cumulative time (in ticks) in various power states
system.ruby.network.netifs05.pwrStateResidencyTicks::UNDEFINED    467904000                       # Cumulative time (in ticks) in various power states
system.ruby.network.netifs06.pwrStateResidencyTicks::UNDEFINED    467904000                       # Cumulative time (in ticks) in various power states
system.ruby.network.netifs07.pwrStateResidencyTicks::UNDEFINED    467904000                       # Cumulative time (in ticks) in various power states
system.ruby.network.netifs08.pwrStateResidencyTicks::UNDEFINED    467904000                       # Cumulative time (in ticks) in various power states
system.ruby.network.netifs09.pwrStateResidencyTicks::UNDEFINED    467904000                       # Cumulative time (in ticks) in various power states
system.ruby.network.netifs10.pwrStateResidencyTicks::UNDEFINED    467904000                       # Cumulative time (in ticks) in various power states
system.ruby.network.netifs11.pwrStateResidencyTicks::UNDEFINED    467904000                       # Cumulative time (in ticks) in various power states
system.ruby.network.netifs12.pwrStateResidencyTicks::UNDEFINED    467904000                       # Cumulative time (in ticks) in various power states
system.ruby.network.netifs13.pwrStateResidencyTicks::UNDEFINED    467904000                       # Cumulative time (in ticks) in various power states
system.ruby.network.netifs14.pwrStateResidencyTicks::UNDEFINED    467904000                       # Cumulative time (in ticks) in various power states
system.ruby.network.netifs15.pwrStateResidencyTicks::UNDEFINED    467904000                       # Cumulative time (in ticks) in various power states
system.ruby.network.netifs16.pwrStateResidencyTicks::UNDEFINED    467904000                       # Cumulative time (in ticks) in various power states
system.ruby.network.netifs17.pwrStateResidencyTicks::UNDEFINED    467904000                       # Cumulative time (in ticks) in various power states
system.ruby.network.netifs18.pwrStateResidencyTicks::UNDEFINED    467904000                       # Cumulative time (in ticks) in various power states
system.ruby.network.netifs19.pwrStateResidencyTicks::UNDEFINED    467904000                       # Cumulative time (in ticks) in various power states
system.ruby.network.netifs20.pwrStateResidencyTicks::UNDEFINED    467904000                       # Cumulative time (in ticks) in various power states
system.ruby.network.netifs21.pwrStateResidencyTicks::UNDEFINED    467904000                       # Cumulative time (in ticks) in various power states
system.ruby.network.netifs22.pwrStateResidencyTicks::UNDEFINED    467904000                       # Cumulative time (in ticks) in various power states
system.ruby.network.netifs23.pwrStateResidencyTicks::UNDEFINED    467904000                       # Cumulative time (in ticks) in various power states
system.ruby.network.netifs24.pwrStateResidencyTicks::UNDEFINED    467904000                       # Cumulative time (in ticks) in various power states
system.ruby.network.netifs25.pwrStateResidencyTicks::UNDEFINED    467904000                       # Cumulative time (in ticks) in various power states
system.ruby.network.netifs26.pwrStateResidencyTicks::UNDEFINED    467904000                       # Cumulative time (in ticks) in various power states
system.ruby.network.netifs27.pwrStateResidencyTicks::UNDEFINED    467904000                       # Cumulative time (in ticks) in various power states
system.ruby.network.netifs28.pwrStateResidencyTicks::UNDEFINED    467904000                       # Cumulative time (in ticks) in various power states
system.ruby.network.netifs29.pwrStateResidencyTicks::UNDEFINED    467904000                       # Cumulative time (in ticks) in various power states
system.ruby.network.netifs30.pwrStateResidencyTicks::UNDEFINED    467904000                       # Cumulative time (in ticks) in various power states
system.ruby.network.netifs31.pwrStateResidencyTicks::UNDEFINED    467904000                       # Cumulative time (in ticks) in various power states
system.ruby.network.netifs32.pwrStateResidencyTicks::UNDEFINED    467904000                       # Cumulative time (in ticks) in various power states
system.ruby.network.netifs33.pwrStateResidencyTicks::UNDEFINED    467904000                       # Cumulative time (in ticks) in various power states
system.ruby.network.netifs34.pwrStateResidencyTicks::UNDEFINED    467904000                       # Cumulative time (in ticks) in various power states
system.ruby.network.netifs35.pwrStateResidencyTicks::UNDEFINED    467904000                       # Cumulative time (in ticks) in various power states
system.ruby.network.packet_network_latency |      210424                       |      227488                       |       51756                      
system.ruby.network.packet_queueing_latency |       42595                       |       27770                       |        6098                      
system.ruby.network.packets_injected     |       18557     42.77%     42.77% |       18734     43.18%     85.95% |        6098     14.05%    100.00%
system.ruby.network.packets_injected::total        43389                      
system.ruby.network.packets_received     |       18557     42.77%     42.77% |       18733     43.18%     85.95% |        6098     14.05%    100.00%
system.ruby.network.packets_received::total        43388                      
system.ruby.network.pwrStateResidencyTicks::UNDEFINED    467904000                       # Cumulative time (in ticks) in various power states
system.ruby.network.routers00.buffer_reads        88358                      
system.ruby.network.routers00.buffer_writes        88358                      
system.ruby.network.routers00.crossbar_activity        88358                      
system.ruby.network.routers00.pwrStateResidencyTicks::UNDEFINED    467904000                       # Cumulative time (in ticks) in various power states
system.ruby.network.routers00.sw_input_arbiter_activity        88414                      
system.ruby.network.routers00.sw_output_arbiter_activity        88358                      
system.ruby.network.routers01.buffer_reads        38558                      
system.ruby.network.routers01.buffer_writes        38558                      
system.ruby.network.routers01.crossbar_activity        38558                      
system.ruby.network.routers01.pwrStateResidencyTicks::UNDEFINED    467904000                       # Cumulative time (in ticks) in various power states
system.ruby.network.routers01.sw_input_arbiter_activity        38603                      
system.ruby.network.routers01.sw_output_arbiter_activity        38558                      
system.ruby.network.routers02.buffer_reads        25800                      
system.ruby.network.routers02.buffer_writes        25800                      
system.ruby.network.routers02.crossbar_activity        25800                      
system.ruby.network.routers02.pwrStateResidencyTicks::UNDEFINED    467904000                       # Cumulative time (in ticks) in various power states
system.ruby.network.routers02.sw_input_arbiter_activity        25808                      
system.ruby.network.routers02.sw_output_arbiter_activity        25800                      
system.ruby.network.routers03.buffer_reads        15626                      
system.ruby.network.routers03.buffer_writes        15626                      
system.ruby.network.routers03.crossbar_activity        15626                      
system.ruby.network.routers03.pwrStateResidencyTicks::UNDEFINED    467904000                       # Cumulative time (in ticks) in various power states
system.ruby.network.routers03.sw_input_arbiter_activity        15628                      
system.ruby.network.routers03.sw_output_arbiter_activity        15626                      
system.ruby.network.routers04.buffer_reads        49713                      
system.ruby.network.routers04.buffer_writes        49713                      
system.ruby.network.routers04.crossbar_activity        49713                      
system.ruby.network.routers04.pwrStateResidencyTicks::UNDEFINED    467904000                       # Cumulative time (in ticks) in various power states
system.ruby.network.routers04.sw_input_arbiter_activity        49747                      
system.ruby.network.routers04.sw_output_arbiter_activity        49713                      
system.ruby.network.routers05.buffer_reads        20218                      
system.ruby.network.routers05.buffer_writes        20218                      
system.ruby.network.routers05.crossbar_activity        20218                      
system.ruby.network.routers05.pwrStateResidencyTicks::UNDEFINED    467904000                       # Cumulative time (in ticks) in various power states
system.ruby.network.routers05.sw_input_arbiter_activity        20226                      
system.ruby.network.routers05.sw_output_arbiter_activity        20218                      
system.ruby.network.routers06.buffer_reads        16541                      
system.ruby.network.routers06.buffer_writes        16541                      
system.ruby.network.routers06.crossbar_activity        16541                      
system.ruby.network.routers06.pwrStateResidencyTicks::UNDEFINED    467904000                       # Cumulative time (in ticks) in various power states
system.ruby.network.routers06.sw_input_arbiter_activity        16554                      
system.ruby.network.routers06.sw_output_arbiter_activity        16541                      
system.ruby.network.routers07.buffer_reads        11496                      
system.ruby.network.routers07.buffer_writes        11496                      
system.ruby.network.routers07.crossbar_activity        11496                      
system.ruby.network.routers07.pwrStateResidencyTicks::UNDEFINED    467904000                       # Cumulative time (in ticks) in various power states
system.ruby.network.routers07.sw_input_arbiter_activity        11504                      
system.ruby.network.routers07.sw_output_arbiter_activity        11496                      
system.ruby.network.routers08.buffer_reads        32271                      
system.ruby.network.routers08.buffer_writes        32271                      
system.ruby.network.routers08.crossbar_activity        32271                      
system.ruby.network.routers08.pwrStateResidencyTicks::UNDEFINED    467904000                       # Cumulative time (in ticks) in various power states
system.ruby.network.routers08.sw_input_arbiter_activity        32289                      
system.ruby.network.routers08.sw_output_arbiter_activity        32271                      
system.ruby.network.routers09.buffer_reads        15878                      
system.ruby.network.routers09.buffer_writes        15878                      
system.ruby.network.routers09.crossbar_activity        15878                      
system.ruby.network.routers09.pwrStateResidencyTicks::UNDEFINED    467904000                       # Cumulative time (in ticks) in various power states
system.ruby.network.routers09.sw_input_arbiter_activity        15883                      
system.ruby.network.routers09.sw_output_arbiter_activity        15878                      
system.ruby.network.routers10.buffer_reads        15213                      
system.ruby.network.routers10.buffer_writes        15213                      
system.ruby.network.routers10.crossbar_activity        15213                      
system.ruby.network.routers10.pwrStateResidencyTicks::UNDEFINED    467904000                       # Cumulative time (in ticks) in various power states
system.ruby.network.routers10.sw_input_arbiter_activity        15230                      
system.ruby.network.routers10.sw_output_arbiter_activity        15213                      
system.ruby.network.routers11.buffer_reads        10540                      
system.ruby.network.routers11.buffer_writes        10540                      
system.ruby.network.routers11.crossbar_activity        10540                      
system.ruby.network.routers11.pwrStateResidencyTicks::UNDEFINED    467904000                       # Cumulative time (in ticks) in various power states
system.ruby.network.routers11.sw_input_arbiter_activity        10541                      
system.ruby.network.routers11.sw_output_arbiter_activity        10540                      
system.ruby.network.routers12.buffer_reads        21674                      
system.ruby.network.routers12.buffer_writes        21674                      
system.ruby.network.routers12.crossbar_activity        21674                      
system.ruby.network.routers12.pwrStateResidencyTicks::UNDEFINED    467904000                       # Cumulative time (in ticks) in various power states
system.ruby.network.routers12.sw_input_arbiter_activity        21679                      
system.ruby.network.routers12.sw_output_arbiter_activity        21674                      
system.ruby.network.routers13.buffer_reads        17525                      
system.ruby.network.routers13.buffer_writes        17525                      
system.ruby.network.routers13.crossbar_activity        17525                      
system.ruby.network.routers13.pwrStateResidencyTicks::UNDEFINED    467904000                       # Cumulative time (in ticks) in various power states
system.ruby.network.routers13.sw_input_arbiter_activity        17540                      
system.ruby.network.routers13.sw_output_arbiter_activity        17525                      
system.ruby.network.routers14.buffer_reads        14637                      
system.ruby.network.routers14.buffer_writes        14637                      
system.ruby.network.routers14.crossbar_activity        14637                      
system.ruby.network.routers14.pwrStateResidencyTicks::UNDEFINED    467904000                       # Cumulative time (in ticks) in various power states
system.ruby.network.routers14.sw_input_arbiter_activity        14652                      
system.ruby.network.routers14.sw_output_arbiter_activity        14637                      
system.ruby.network.routers15.buffer_reads        10796                      
system.ruby.network.routers15.buffer_writes        10796                      
system.ruby.network.routers15.crossbar_activity        10796                      
system.ruby.network.routers15.pwrStateResidencyTicks::UNDEFINED    467904000                       # Cumulative time (in ticks) in various power states
system.ruby.network.routers15.sw_input_arbiter_activity        10809                      
system.ruby.network.routers15.sw_output_arbiter_activity        10796                      
system.ruby.outstanding_req_hist_seqr::bucket_size            1                      
system.ruby.outstanding_req_hist_seqr::max_bucket            9                      
system.ruby.outstanding_req_hist_seqr::samples       268870                      
system.ruby.outstanding_req_hist_seqr::mean            1                      
system.ruby.outstanding_req_hist_seqr::gmean            1                      
system.ruby.outstanding_req_hist_seqr    |           0      0.00%      0.00% |      268870    100.00%    100.00% |           0      0.00%    100.00% |           0      0.00%    100.00% |           0      0.00%    100.00% |           0      0.00%    100.00% |           0      0.00%    100.00% |           0      0.00%    100.00% |           0      0.00%    100.00% |           0      0.00%    100.00%
system.ruby.outstanding_req_hist_seqr::total       268870                      
system.ruby.pwrStateResidencyTicks::UNDEFINED    467904000                       # Cumulative time (in ticks) in various power states
system.sys_port_proxy.pwrStateResidencyTicks::UNDEFINED    467904000                       # Cumulative time (in ticks) in various power states
system.voltage_domain.voltage                       1                       # Voltage in Volts

---------- End Simulation Statistics   ----------
