
---------- Begin Simulation Statistics ----------
final_tick                                  573009500                       # Number of ticks from beginning of simulation (restored from checkpoints and never reset)
host_inst_rate                                  27975                       # Simulator instruction rate (inst/s)
host_mem_usage                                5159340                       # Number of bytes of host memory used
host_op_rate                                    28063                       # Simulator op (including micro ops) rate (op/s)
host_seconds                                     4.25                       # Real time elapsed on the host
host_tick_rate                              134798341                       # Simulator tick rate (ticks/s)
sim_freq                                 1000000000000                       # Frequency of simulated ticks
sim_insts                                      118911                       # Number of instructions simulated
sim_ops                                        119293                       # Number of ops (including micro ops) simulated
sim_seconds                                  0.000573                       # Number of seconds simulated
sim_ticks                                   573009500                       # Number of ticks simulated
system.clk_domain.clock                          1000                       # Clock period in ticks
system.cpu00.Branches                           22339                       # Number of branches fetched
system.cpu00.committedInsts                    100000                       # Number of instructions committed
system.cpu00.committedOps                      100293                       # Number of ops (including micro ops) committed
system.cpu00.dtb.accesses                           0                       # DTB accesses
system.cpu00.dtb.hits                               0                       # DTB hits
system.cpu00.dtb.misses                             0                       # DTB misses
system.cpu00.dtb.pwrStateResidencyTicks::UNDEFINED    573009500                       # Cumulative time (in ticks) in various power states
system.cpu00.dtb.read_accesses                      0                       # DTB read accesses
system.cpu00.dtb.read_hits                          0                       # DTB read hits
system.cpu00.dtb.read_misses                        0                       # DTB read misses
system.cpu00.dtb.write_accesses                     0                       # DTB write accesses
system.cpu00.dtb.write_hits                         0                       # DTB write hits
system.cpu00.dtb.write_misses                       0                       # DTB write misses
system.cpu00.idle_fraction                   0.003446                       # Percentage of idle cycles
system.cpu00.itb.accesses                           0                       # DTB accesses
system.cpu00.itb.hits                               0                       # DTB hits
system.cpu00.itb.misses                             0                       # DTB misses
system.cpu00.itb.pwrStateResidencyTicks::UNDEFINED    573009500                       # Cumulative time (in ticks) in various power states
system.cpu00.itb.read_accesses                      0                       # DTB read accesses
system.cpu00.itb.read_hits                          0                       # DTB read hits
system.cpu00.itb.read_misses                        0                       # DTB read misses
system.cpu00.itb.write_accesses                     0                       # DTB write accesses
system.cpu00.itb.write_hits                         0                       # DTB write hits
system.cpu00.itb.write_misses                       0                       # DTB write misses
system.cpu00.not_idle_fraction               0.996554                       # Percentage of non-idle cycles
system.cpu00.numCycles                        1146019                       # number of cpu cycles simulated
system.cpu00.numPwrStateTransitions                 2                       # Number of power state transitions
system.cpu00.numWorkItemsCompleted                  0                       # number of work items this cpu completed
system.cpu00.numWorkItemsStarted                    0                       # number of work items this cpu started
system.cpu00.num_busy_cycles             1142070.000007                       # Number of busy cycles
system.cpu00.num_conditional_control_insts        15917                       # number of instructions that are conditional controls
system.cpu00.num_fp_alu_accesses                   12                       # Number of float alu accesses
system.cpu00.num_fp_insts                          12                       # number of float instructions
system.cpu00.num_fp_register_reads                 12                       # number of times the floating registers were read
system.cpu00.num_fp_register_writes                 0                       # number of times the floating registers were written
system.cpu00.num_func_calls                      6422                       # number of times a function call or return occured
system.cpu00.num_idle_cycles              3948.999993                       # Number of idle cycles
system.cpu00.num_int_alu_accesses               98833                       # Number of integer alu accesses
system.cpu00.num_int_insts                      98833                       # number of integer instructions
system.cpu00.num_int_register_reads            120831                       # number of times the integer registers were read
system.cpu00.num_int_register_writes            64478                       # number of times the integer registers were written
system.cpu00.num_load_insts                     20292                       # Number of load instructions
system.cpu00.num_mem_refs                       36561                       # number of memory refs
system.cpu00.num_store_insts                    16269                       # Number of store instructions
system.cpu00.num_vec_alu_accesses                   0                       # Number of vector alu accesses
system.cpu00.num_vec_insts                          0                       # number of vector instructions
system.cpu00.num_vec_register_reads                 0                       # number of times the vector registers were read
system.cpu00.num_vec_register_writes                0                       # number of times the vector registers were written
system.cpu00.op_class::No_OpClass                 859      0.86%      0.86% # Class of executed instruction
system.cpu00.op_class::IntAlu                   62909     62.68%     63.54% # Class of executed instruction
system.cpu00.op_class::IntMult                     30      0.03%     63.57% # Class of executed instruction
system.cpu00.op_class::IntDiv                       6      0.01%     63.57% # Class of executed instruction
system.cpu00.op_class::FloatAdd                     0      0.00%     63.57% # Class of executed instruction
system.cpu00.op_class::FloatCmp                     0      0.00%     63.57% # Class of executed instruction
system.cpu00.op_class::FloatCvt                     0      0.00%     63.57% # Class of executed instruction
system.cpu00.op_class::FloatMult                    0      0.00%     63.57% # Class of executed instruction
system.cpu00.op_class::FloatMultAcc                 0      0.00%     63.57% # Class of executed instruction
system.cpu00.op_class::FloatDiv                     0      0.00%     63.57% # Class of executed instruction
system.cpu00.op_class::FloatMisc                    0      0.00%     63.57% # Class of executed instruction
system.cpu00.op_class::FloatSqrt                    0      0.00%     63.57% # Class of executed instruction
system.cpu00.op_class::SimdAdd                      0      0.00%     63.57% # Class of executed instruction
system.cpu00.op_class::SimdAddAcc                   0      0.00%     63.57% # Class of executed instruction
system.cpu00.op_class::SimdAlu                      0      0.00%     63.57% # Class of executed instruction
system.cpu00.op_class::SimdCmp                      0      0.00%     63.57% # Class of executed instruction
system.cpu00.op_class::SimdCvt                      0      0.00%     63.57% # Class of executed instruction
system.cpu00.op_class::SimdMisc                     0      0.00%     63.57% # Class of executed instruction
system.cpu00.op_class::SimdMult                     0      0.00%     63.57% # Class of executed instruction
system.cpu00.op_class::SimdMultAcc                  0      0.00%     63.57% # Class of executed instruction
system.cpu00.op_class::SimdShift                    0      0.00%     63.57% # Class of executed instruction
system.cpu00.op_class::SimdShiftAcc                 0      0.00%     63.57% # Class of executed instruction
system.cpu00.op_class::SimdSqrt                     0      0.00%     63.57% # Class of executed instruction
system.cpu00.op_class::SimdFloatAdd                 0      0.00%     63.57% # Class of executed instruction
system.cpu00.op_class::SimdFloatAlu                 0      0.00%     63.57% # Class of executed instruction
system.cpu00.op_class::SimdFloatCmp                 0      0.00%     63.57% # Class of executed instruction
system.cpu00.op_class::SimdFloatCvt                 0      0.00%     63.57% # Class of executed instruction
system.cpu00.op_class::SimdFloatDiv                 0      0.00%     63.57% # Class of executed instruction
system.cpu00.op_class::SimdFloatMisc                0      0.00%     63.57% # Class of executed instruction
system.cpu00.op_class::SimdFloatMult                0      0.00%     63.57% # Class of executed instruction
system.cpu00.op_class::SimdFloatMultAcc             0      0.00%     63.57% # Class of executed instruction
system.cpu00.op_class::SimdFloatSqrt                0      0.00%     63.57% # Class of executed instruction
system.cpu00.op_class::SimdAes                      0      0.00%     63.57% # Class of executed instruction
system.cpu00.op_class::SimdAesMix                   0      0.00%     63.57% # Class of executed instruction
system.cpu00.op_class::SimdSha1Hash                 0      0.00%     63.57% # Class of executed instruction
system.cpu00.op_class::SimdSha1Hash2                0      0.00%     63.57% # Class of executed instruction
system.cpu00.op_class::SimdSha256Hash               0      0.00%     63.57% # Class of executed instruction
system.cpu00.op_class::SimdSha256Hash2              0      0.00%     63.57% # Class of executed instruction
system.cpu00.op_class::SimdShaSigma2                0      0.00%     63.57% # Class of executed instruction
system.cpu00.op_class::SimdShaSigma3                0      0.00%     63.57% # Class of executed instruction
system.cpu00.op_class::MemRead                  20577     20.50%     84.07% # Class of executed instruction
system.cpu00.op_class::MemWrite                 15972     15.91%     99.99% # Class of executed instruction
system.cpu00.op_class::FloatMemRead                 0      0.00%     99.99% # Class of executed instruction
system.cpu00.op_class::FloatMemWrite               12      0.01%    100.00% # Class of executed instruction
system.cpu00.op_class::IprAccess                    0      0.00%    100.00% # Class of executed instruction
system.cpu00.op_class::InstPrefetch                 0      0.00%    100.00% # Class of executed instruction
system.cpu00.op_class::total                   100365                       # Class of executed instruction
system.cpu00.pwrStateClkGateDist::samples            1                       # Distribution of time spent in the clock gated state
system.cpu00.pwrStateClkGateDist::mean        1974500                       # Distribution of time spent in the clock gated state
system.cpu00.pwrStateClkGateDist::1000-5e+10            1    100.00%    100.00% # Distribution of time spent in the clock gated state
system.cpu00.pwrStateClkGateDist::min_value      1974500                       # Distribution of time spent in the clock gated state
system.cpu00.pwrStateClkGateDist::max_value      1974500                       # Distribution of time spent in the clock gated state
system.cpu00.pwrStateClkGateDist::total             1                       # Distribution of time spent in the clock gated state
system.cpu00.pwrStateResidencyTicks::ON     571035000                       # Cumulative time (in ticks) in various power states
system.cpu00.pwrStateResidencyTicks::CLK_GATED      1974500                       # Cumulative time (in ticks) in various power states
system.cpu00.workload.numSyscalls                  71                       # Number of system calls
system.cpu01.Branches                             235                       # Number of branches fetched
system.cpu01.committedInsts                      1208                       # Number of instructions committed
system.cpu01.committedOps                        1214                       # Number of ops (including micro ops) committed
system.cpu01.dtb.accesses                           0                       # DTB accesses
system.cpu01.dtb.hits                               0                       # DTB hits
system.cpu01.dtb.misses                             0                       # DTB misses
system.cpu01.dtb.pwrStateResidencyTicks::UNDEFINED    573009500                       # Cumulative time (in ticks) in various power states
system.cpu01.dtb.read_accesses                      0                       # DTB read accesses
system.cpu01.dtb.read_hits                          0                       # DTB read hits
system.cpu01.dtb.read_misses                        0                       # DTB read misses
system.cpu01.dtb.write_accesses                     0                       # DTB write accesses
system.cpu01.dtb.write_hits                         0                       # DTB write hits
system.cpu01.dtb.write_misses                       0                       # DTB write misses
system.cpu01.idle_fraction                   0.976491                       # Percentage of idle cycles
system.cpu01.itb.accesses                           0                       # DTB accesses
system.cpu01.itb.hits                               0                       # DTB hits
system.cpu01.itb.misses                             0                       # DTB misses
system.cpu01.itb.pwrStateResidencyTicks::UNDEFINED    573009500                       # Cumulative time (in ticks) in various power states
system.cpu01.itb.read_accesses                      0                       # DTB read accesses
system.cpu01.itb.read_hits                          0                       # DTB read hits
system.cpu01.itb.read_misses                        0                       # DTB read misses
system.cpu01.itb.write_accesses                     0                       # DTB write accesses
system.cpu01.itb.write_hits                         0                       # DTB write hits
system.cpu01.itb.write_misses                       0                       # DTB write misses
system.cpu01.not_idle_fraction               0.023509                       # Percentage of non-idle cycles
system.cpu01.numCycles                        1145923                       # number of cpu cycles simulated
system.cpu01.numPwrStateTransitions                 2                       # Number of power state transitions
system.cpu01.numWorkItemsCompleted                  0                       # number of work items this cpu completed
system.cpu01.numWorkItemsStarted                    0                       # number of work items this cpu started
system.cpu01.num_busy_cycles             26939.745069                       # Number of busy cycles
system.cpu01.num_conditional_control_insts          123                       # number of instructions that are conditional controls
system.cpu01.num_fp_alu_accesses                   12                       # Number of float alu accesses
system.cpu01.num_fp_insts                          12                       # number of float instructions
system.cpu01.num_fp_register_reads                 12                       # number of times the floating registers were read
system.cpu01.num_fp_register_writes                 0                       # number of times the floating registers were written
system.cpu01.num_func_calls                       112                       # number of times a function call or return occured
system.cpu01.num_idle_cycles             1118983.254931                       # Number of idle cycles
system.cpu01.num_int_alu_accesses                1188                       # Number of integer alu accesses
system.cpu01.num_int_insts                       1188                       # number of integer instructions
system.cpu01.num_int_register_reads              1387                       # number of times the integer registers were read
system.cpu01.num_int_register_writes              837                       # number of times the integer registers were written
system.cpu01.num_load_insts                       276                       # Number of load instructions
system.cpu01.num_mem_refs                         466                       # number of memory refs
system.cpu01.num_store_insts                      190                       # Number of store instructions
system.cpu01.num_vec_alu_accesses                   0                       # Number of vector alu accesses
system.cpu01.num_vec_insts                          0                       # number of vector instructions
system.cpu01.num_vec_register_reads                 0                       # number of times the vector registers were read
system.cpu01.num_vec_register_writes                0                       # number of times the vector registers were written
system.cpu01.op_class::No_OpClass                  10      0.82%      0.82% # Class of executed instruction
system.cpu01.op_class::IntAlu                     737     60.61%     61.43% # Class of executed instruction
system.cpu01.op_class::IntMult                      1      0.08%     61.51% # Class of executed instruction
system.cpu01.op_class::IntDiv                       2      0.16%     61.68% # Class of executed instruction
system.cpu01.op_class::FloatAdd                     0      0.00%     61.68% # Class of executed instruction
system.cpu01.op_class::FloatCmp                     0      0.00%     61.68% # Class of executed instruction
system.cpu01.op_class::FloatCvt                     0      0.00%     61.68% # Class of executed instruction
system.cpu01.op_class::FloatMult                    0      0.00%     61.68% # Class of executed instruction
system.cpu01.op_class::FloatMultAcc                 0      0.00%     61.68% # Class of executed instruction
system.cpu01.op_class::FloatDiv                     0      0.00%     61.68% # Class of executed instruction
system.cpu01.op_class::FloatMisc                    0      0.00%     61.68% # Class of executed instruction
system.cpu01.op_class::FloatSqrt                    0      0.00%     61.68% # Class of executed instruction
system.cpu01.op_class::SimdAdd                      0      0.00%     61.68% # Class of executed instruction
system.cpu01.op_class::SimdAddAcc                   0      0.00%     61.68% # Class of executed instruction
system.cpu01.op_class::SimdAlu                      0      0.00%     61.68% # Class of executed instruction
system.cpu01.op_class::SimdCmp                      0      0.00%     61.68% # Class of executed instruction
system.cpu01.op_class::SimdCvt                      0      0.00%     61.68% # Class of executed instruction
system.cpu01.op_class::SimdMisc                     0      0.00%     61.68% # Class of executed instruction
system.cpu01.op_class::SimdMult                     0      0.00%     61.68% # Class of executed instruction
system.cpu01.op_class::SimdMultAcc                  0      0.00%     61.68% # Class of executed instruction
system.cpu01.op_class::SimdShift                    0      0.00%     61.68% # Class of executed instruction
system.cpu01.op_class::SimdShiftAcc                 0      0.00%     61.68% # Class of executed instruction
system.cpu01.op_class::SimdSqrt                     0      0.00%     61.68% # Class of executed instruction
system.cpu01.op_class::SimdFloatAdd                 0      0.00%     61.68% # Class of executed instruction
system.cpu01.op_class::SimdFloatAlu                 0      0.00%     61.68% # Class of executed instruction
system.cpu01.op_class::SimdFloatCmp                 0      0.00%     61.68% # Class of executed instruction
system.cpu01.op_class::SimdFloatCvt                 0      0.00%     61.68% # Class of executed instruction
system.cpu01.op_class::SimdFloatDiv                 0      0.00%     61.68% # Class of executed instruction
system.cpu01.op_class::SimdFloatMisc                0      0.00%     61.68% # Class of executed instruction
system.cpu01.op_class::SimdFloatMult                0      0.00%     61.68% # Class of executed instruction
system.cpu01.op_class::SimdFloatMultAcc             0      0.00%     61.68% # Class of executed instruction
system.cpu01.op_class::SimdFloatSqrt                0      0.00%     61.68% # Class of executed instruction
system.cpu01.op_class::SimdAes                      0      0.00%     61.68% # Class of executed instruction
system.cpu01.op_class::SimdAesMix                   0      0.00%     61.68% # Class of executed instruction
system.cpu01.op_class::SimdSha1Hash                 0      0.00%     61.68% # Class of executed instruction
system.cpu01.op_class::SimdSha1Hash2                0      0.00%     61.68% # Class of executed instruction
system.cpu01.op_class::SimdSha256Hash               0      0.00%     61.68% # Class of executed instruction
system.cpu01.op_class::SimdSha256Hash2              0      0.00%     61.68% # Class of executed instruction
system.cpu01.op_class::SimdShaSigma2                0      0.00%     61.68% # Class of executed instruction
system.cpu01.op_class::SimdShaSigma3                0      0.00%     61.68% # Class of executed instruction
system.cpu01.op_class::MemRead                    280     23.03%     84.70% # Class of executed instruction
system.cpu01.op_class::MemWrite                   174     14.31%     99.01% # Class of executed instruction
system.cpu01.op_class::FloatMemRead                 0      0.00%     99.01% # Class of executed instruction
system.cpu01.op_class::FloatMemWrite               12      0.99%    100.00% # Class of executed instruction
system.cpu01.op_class::IprAccess                    0      0.00%    100.00% # Class of executed instruction
system.cpu01.op_class::InstPrefetch                 0      0.00%    100.00% # Class of executed instruction
system.cpu01.op_class::total                     1216                       # Class of executed instruction
system.cpu01.pwrStateClkGateDist::samples            1                       # Distribution of time spent in the clock gated state
system.cpu01.pwrStateClkGateDist::mean      122932500                       # Distribution of time spent in the clock gated state
system.cpu01.pwrStateClkGateDist::1000-5e+10            1    100.00%    100.00% # Distribution of time spent in the clock gated state
system.cpu01.pwrStateClkGateDist::min_value    122932500                       # Distribution of time spent in the clock gated state
system.cpu01.pwrStateClkGateDist::max_value    122932500                       # Distribution of time spent in the clock gated state
system.cpu01.pwrStateClkGateDist::total             1                       # Distribution of time spent in the clock gated state
system.cpu01.pwrStateResidencyTicks::ON     450077000                       # Cumulative time (in ticks) in various power states
system.cpu01.pwrStateResidencyTicks::CLK_GATED    122932500                       # Cumulative time (in ticks) in various power states
system.cpu02.Branches                             258                       # Number of branches fetched
system.cpu02.committedInsts                      1332                       # Number of instructions committed
system.cpu02.committedOps                        1338                       # Number of ops (including micro ops) committed
system.cpu02.dtb.accesses                           0                       # DTB accesses
system.cpu02.dtb.hits                               0                       # DTB hits
system.cpu02.dtb.misses                             0                       # DTB misses
system.cpu02.dtb.pwrStateResidencyTicks::UNDEFINED    573009500                       # Cumulative time (in ticks) in various power states
system.cpu02.dtb.read_accesses                      0                       # DTB read accesses
system.cpu02.dtb.read_hits                          0                       # DTB read hits
system.cpu02.dtb.read_misses                        0                       # DTB read misses
system.cpu02.dtb.write_accesses                     0                       # DTB write accesses
system.cpu02.dtb.write_hits                         0                       # DTB write hits
system.cpu02.dtb.write_misses                       0                       # DTB write misses
system.cpu02.idle_fraction                   0.979370                       # Percentage of idle cycles
system.cpu02.itb.accesses                           0                       # DTB accesses
system.cpu02.itb.hits                               0                       # DTB hits
system.cpu02.itb.misses                             0                       # DTB misses
system.cpu02.itb.pwrStateResidencyTicks::UNDEFINED    573009500                       # Cumulative time (in ticks) in various power states
system.cpu02.itb.read_accesses                      0                       # DTB read accesses
system.cpu02.itb.read_hits                          0                       # DTB read hits
system.cpu02.itb.read_misses                        0                       # DTB read misses
system.cpu02.itb.write_accesses                     0                       # DTB write accesses
system.cpu02.itb.write_hits                         0                       # DTB write hits
system.cpu02.itb.write_misses                       0                       # DTB write misses
system.cpu02.not_idle_fraction               0.020630                       # Percentage of non-idle cycles
system.cpu02.numCycles                        1145928                       # number of cpu cycles simulated
system.cpu02.numPwrStateTransitions                 2                       # Number of power state transitions
system.cpu02.numWorkItemsCompleted                  0                       # number of work items this cpu completed
system.cpu02.numWorkItemsStarted                    0                       # number of work items this cpu started
system.cpu02.num_busy_cycles             23640.124658                       # Number of busy cycles
system.cpu02.num_conditional_control_insts          135                       # number of instructions that are conditional controls
system.cpu02.num_fp_alu_accesses                   12                       # Number of float alu accesses
system.cpu02.num_fp_insts                          12                       # number of float instructions
system.cpu02.num_fp_register_reads                 12                       # number of times the floating registers were read
system.cpu02.num_fp_register_writes                 0                       # number of times the floating registers were written
system.cpu02.num_func_calls                       123                       # number of times a function call or return occured
system.cpu02.num_idle_cycles             1122287.875342                       # Number of idle cycles
system.cpu02.num_int_alu_accesses                1310                       # Number of integer alu accesses
system.cpu02.num_int_insts                       1310                       # number of integer instructions
system.cpu02.num_int_register_reads              1527                       # number of times the integer registers were read
system.cpu02.num_int_register_writes              929                       # number of times the integer registers were written
system.cpu02.num_load_insts                       307                       # Number of load instructions
system.cpu02.num_mem_refs                         510                       # number of memory refs
system.cpu02.num_store_insts                      203                       # Number of store instructions
system.cpu02.num_vec_alu_accesses                   0                       # Number of vector alu accesses
system.cpu02.num_vec_insts                          0                       # number of vector instructions
system.cpu02.num_vec_register_reads                 0                       # number of times the vector registers were read
system.cpu02.num_vec_register_writes                0                       # number of times the vector registers were written
system.cpu02.op_class::No_OpClass                  10      0.75%      0.75% # Class of executed instruction
system.cpu02.op_class::IntAlu                     817     60.97%     61.72% # Class of executed instruction
system.cpu02.op_class::IntMult                      1      0.07%     61.79% # Class of executed instruction
system.cpu02.op_class::IntDiv                       2      0.15%     61.94% # Class of executed instruction
system.cpu02.op_class::FloatAdd                     0      0.00%     61.94% # Class of executed instruction
system.cpu02.op_class::FloatCmp                     0      0.00%     61.94% # Class of executed instruction
system.cpu02.op_class::FloatCvt                     0      0.00%     61.94% # Class of executed instruction
system.cpu02.op_class::FloatMult                    0      0.00%     61.94% # Class of executed instruction
system.cpu02.op_class::FloatMultAcc                 0      0.00%     61.94% # Class of executed instruction
system.cpu02.op_class::FloatDiv                     0      0.00%     61.94% # Class of executed instruction
system.cpu02.op_class::FloatMisc                    0      0.00%     61.94% # Class of executed instruction
system.cpu02.op_class::FloatSqrt                    0      0.00%     61.94% # Class of executed instruction
system.cpu02.op_class::SimdAdd                      0      0.00%     61.94% # Class of executed instruction
system.cpu02.op_class::SimdAddAcc                   0      0.00%     61.94% # Class of executed instruction
system.cpu02.op_class::SimdAlu                      0      0.00%     61.94% # Class of executed instruction
system.cpu02.op_class::SimdCmp                      0      0.00%     61.94% # Class of executed instruction
system.cpu02.op_class::SimdCvt                      0      0.00%     61.94% # Class of executed instruction
system.cpu02.op_class::SimdMisc                     0      0.00%     61.94% # Class of executed instruction
system.cpu02.op_class::SimdMult                     0      0.00%     61.94% # Class of executed instruction
system.cpu02.op_class::SimdMultAcc                  0      0.00%     61.94% # Class of executed instruction
system.cpu02.op_class::SimdShift                    0      0.00%     61.94% # Class of executed instruction
system.cpu02.op_class::SimdShiftAcc                 0      0.00%     61.94% # Class of executed instruction
system.cpu02.op_class::SimdSqrt                     0      0.00%     61.94% # Class of executed instruction
system.cpu02.op_class::SimdFloatAdd                 0      0.00%     61.94% # Class of executed instruction
system.cpu02.op_class::SimdFloatAlu                 0      0.00%     61.94% # Class of executed instruction
system.cpu02.op_class::SimdFloatCmp                 0      0.00%     61.94% # Class of executed instruction
system.cpu02.op_class::SimdFloatCvt                 0      0.00%     61.94% # Class of executed instruction
system.cpu02.op_class::SimdFloatDiv                 0      0.00%     61.94% # Class of executed instruction
system.cpu02.op_class::SimdFloatMisc                0      0.00%     61.94% # Class of executed instruction
system.cpu02.op_class::SimdFloatMult                0      0.00%     61.94% # Class of executed instruction
system.cpu02.op_class::SimdFloatMultAcc             0      0.00%     61.94% # Class of executed instruction
system.cpu02.op_class::SimdFloatSqrt                0      0.00%     61.94% # Class of executed instruction
system.cpu02.op_class::SimdAes                      0      0.00%     61.94% # Class of executed instruction
system.cpu02.op_class::SimdAesMix                   0      0.00%     61.94% # Class of executed instruction
system.cpu02.op_class::SimdSha1Hash                 0      0.00%     61.94% # Class of executed instruction
system.cpu02.op_class::SimdSha1Hash2                0      0.00%     61.94% # Class of executed instruction
system.cpu02.op_class::SimdSha256Hash               0      0.00%     61.94% # Class of executed instruction
system.cpu02.op_class::SimdSha256Hash2              0      0.00%     61.94% # Class of executed instruction
system.cpu02.op_class::SimdShaSigma2                0      0.00%     61.94% # Class of executed instruction
system.cpu02.op_class::SimdShaSigma3                0      0.00%     61.94% # Class of executed instruction
system.cpu02.op_class::MemRead                    311     23.21%     85.15% # Class of executed instruction
system.cpu02.op_class::MemWrite                   187     13.96%     99.10% # Class of executed instruction
system.cpu02.op_class::FloatMemRead                 0      0.00%     99.10% # Class of executed instruction
system.cpu02.op_class::FloatMemWrite               12      0.90%    100.00% # Class of executed instruction
system.cpu02.op_class::IprAccess                    0      0.00%    100.00% # Class of executed instruction
system.cpu02.op_class::InstPrefetch                 0      0.00%    100.00% # Class of executed instruction
system.cpu02.op_class::total                     1340                       # Class of executed instruction
system.cpu02.pwrStateClkGateDist::samples            1                       # Distribution of time spent in the clock gated state
system.cpu02.pwrStateClkGateDist::mean      116051000                       # Distribution of time spent in the clock gated state
system.cpu02.pwrStateClkGateDist::1000-5e+10            1    100.00%    100.00% # Distribution of time spent in the clock gated state
system.cpu02.pwrStateClkGateDist::min_value    116051000                       # Distribution of time spent in the clock gated state
system.cpu02.pwrStateClkGateDist::max_value    116051000                       # Distribution of time spent in the clock gated state
system.cpu02.pwrStateClkGateDist::total             1                       # Distribution of time spent in the clock gated state
system.cpu02.pwrStateResidencyTicks::ON     456958500                       # Cumulative time (in ticks) in various power states
system.cpu02.pwrStateResidencyTicks::CLK_GATED    116051000                       # Cumulative time (in ticks) in various power states
system.cpu03.Branches                             246                       # Number of branches fetched
system.cpu03.committedInsts                      1260                       # Number of instructions committed
system.cpu03.committedOps                        1266                       # Number of ops (including micro ops) committed
system.cpu03.dtb.accesses                           0                       # DTB accesses
system.cpu03.dtb.hits                               0                       # DTB hits
system.cpu03.dtb.misses                             0                       # DTB misses
system.cpu03.dtb.pwrStateResidencyTicks::UNDEFINED    573009500                       # Cumulative time (in ticks) in various power states
system.cpu03.dtb.read_accesses                      0                       # DTB read accesses
system.cpu03.dtb.read_hits                          0                       # DTB read hits
system.cpu03.dtb.read_misses                        0                       # DTB read misses
system.cpu03.dtb.write_accesses                     0                       # DTB write accesses
system.cpu03.dtb.write_hits                         0                       # DTB write hits
system.cpu03.dtb.write_misses                       0                       # DTB write misses
system.cpu03.idle_fraction                   0.979261                       # Percentage of idle cycles
system.cpu03.itb.accesses                           0                       # DTB accesses
system.cpu03.itb.hits                               0                       # DTB hits
system.cpu03.itb.misses                             0                       # DTB misses
system.cpu03.itb.pwrStateResidencyTicks::UNDEFINED    573009500                       # Cumulative time (in ticks) in various power states
system.cpu03.itb.read_accesses                      0                       # DTB read accesses
system.cpu03.itb.read_hits                          0                       # DTB read hits
system.cpu03.itb.read_misses                        0                       # DTB read misses
system.cpu03.itb.write_accesses                     0                       # DTB write accesses
system.cpu03.itb.write_hits                         0                       # DTB write hits
system.cpu03.itb.write_misses                       0                       # DTB write misses
system.cpu03.not_idle_fraction               0.020739                       # Percentage of non-idle cycles
system.cpu03.numCycles                        1145937                       # number of cpu cycles simulated
system.cpu03.numPwrStateTransitions                 2                       # Number of power state transitions
system.cpu03.numWorkItemsCompleted                  0                       # number of work items this cpu completed
system.cpu03.numWorkItemsStarted                    0                       # number of work items this cpu started
system.cpu03.num_busy_cycles             23765.301381                       # Number of busy cycles
system.cpu03.num_conditional_control_insts          126                       # number of instructions that are conditional controls
system.cpu03.num_fp_alu_accesses                   12                       # Number of float alu accesses
system.cpu03.num_fp_insts                          12                       # number of float instructions
system.cpu03.num_fp_register_reads                 12                       # number of times the floating registers were read
system.cpu03.num_fp_register_writes                 0                       # number of times the floating registers were written
system.cpu03.num_func_calls                       120                       # number of times a function call or return occured
system.cpu03.num_idle_cycles             1122171.698619                       # Number of idle cycles
system.cpu03.num_int_alu_accesses                1236                       # Number of integer alu accesses
system.cpu03.num_int_insts                       1236                       # number of integer instructions
system.cpu03.num_int_register_reads              1443                       # number of times the integer registers were read
system.cpu03.num_int_register_writes              874                       # number of times the integer registers were written
system.cpu03.num_load_insts                       289                       # Number of load instructions
system.cpu03.num_mem_refs                         484                       # number of memory refs
system.cpu03.num_store_insts                      195                       # Number of store instructions
system.cpu03.num_vec_alu_accesses                   0                       # Number of vector alu accesses
system.cpu03.num_vec_insts                          0                       # number of vector instructions
system.cpu03.num_vec_register_reads                 0                       # number of times the vector registers were read
system.cpu03.num_vec_register_writes                0                       # number of times the vector registers were written
system.cpu03.op_class::No_OpClass                  10      0.79%      0.79% # Class of executed instruction
system.cpu03.op_class::IntAlu                     771     60.80%     61.59% # Class of executed instruction
system.cpu03.op_class::IntMult                      1      0.08%     61.67% # Class of executed instruction
system.cpu03.op_class::IntDiv                       2      0.16%     61.83% # Class of executed instruction
system.cpu03.op_class::FloatAdd                     0      0.00%     61.83% # Class of executed instruction
system.cpu03.op_class::FloatCmp                     0      0.00%     61.83% # Class of executed instruction
system.cpu03.op_class::FloatCvt                     0      0.00%     61.83% # Class of executed instruction
system.cpu03.op_class::FloatMult                    0      0.00%     61.83% # Class of executed instruction
system.cpu03.op_class::FloatMultAcc                 0      0.00%     61.83% # Class of executed instruction
system.cpu03.op_class::FloatDiv                     0      0.00%     61.83% # Class of executed instruction
system.cpu03.op_class::FloatMisc                    0      0.00%     61.83% # Class of executed instruction
system.cpu03.op_class::FloatSqrt                    0      0.00%     61.83% # Class of executed instruction
system.cpu03.op_class::SimdAdd                      0      0.00%     61.83% # Class of executed instruction
system.cpu03.op_class::SimdAddAcc                   0      0.00%     61.83% # Class of executed instruction
system.cpu03.op_class::SimdAlu                      0      0.00%     61.83% # Class of executed instruction
system.cpu03.op_class::SimdCmp                      0      0.00%     61.83% # Class of executed instruction
system.cpu03.op_class::SimdCvt                      0      0.00%     61.83% # Class of executed instruction
system.cpu03.op_class::SimdMisc                     0      0.00%     61.83% # Class of executed instruction
system.cpu03.op_class::SimdMult                     0      0.00%     61.83% # Class of executed instruction
system.cpu03.op_class::SimdMultAcc                  0      0.00%     61.83% # Class of executed instruction
system.cpu03.op_class::SimdShift                    0      0.00%     61.83% # Class of executed instruction
system.cpu03.op_class::SimdShiftAcc                 0      0.00%     61.83% # Class of executed instruction
system.cpu03.op_class::SimdSqrt                     0      0.00%     61.83% # Class of executed instruction
system.cpu03.op_class::SimdFloatAdd                 0      0.00%     61.83% # Class of executed instruction
system.cpu03.op_class::SimdFloatAlu                 0      0.00%     61.83% # Class of executed instruction
system.cpu03.op_class::SimdFloatCmp                 0      0.00%     61.83% # Class of executed instruction
system.cpu03.op_class::SimdFloatCvt                 0      0.00%     61.83% # Class of executed instruction
system.cpu03.op_class::SimdFloatDiv                 0      0.00%     61.83% # Class of executed instruction
system.cpu03.op_class::SimdFloatMisc                0      0.00%     61.83% # Class of executed instruction
system.cpu03.op_class::SimdFloatMult                0      0.00%     61.83% # Class of executed instruction
system.cpu03.op_class::SimdFloatMultAcc             0      0.00%     61.83% # Class of executed instruction
system.cpu03.op_class::SimdFloatSqrt                0      0.00%     61.83% # Class of executed instruction
system.cpu03.op_class::SimdAes                      0      0.00%     61.83% # Class of executed instruction
system.cpu03.op_class::SimdAesMix                   0      0.00%     61.83% # Class of executed instruction
system.cpu03.op_class::SimdSha1Hash                 0      0.00%     61.83% # Class of executed instruction
system.cpu03.op_class::SimdSha1Hash2                0      0.00%     61.83% # Class of executed instruction
system.cpu03.op_class::SimdSha256Hash               0      0.00%     61.83% # Class of executed instruction
system.cpu03.op_class::SimdSha256Hash2              0      0.00%     61.83% # Class of executed instruction
system.cpu03.op_class::SimdShaSigma2                0      0.00%     61.83% # Class of executed instruction
system.cpu03.op_class::SimdShaSigma3                0      0.00%     61.83% # Class of executed instruction
system.cpu03.op_class::MemRead                    293     23.11%     84.94% # Class of executed instruction
system.cpu03.op_class::MemWrite                   179     14.12%     99.05% # Class of executed instruction
system.cpu03.op_class::FloatMemRead                 0      0.00%     99.05% # Class of executed instruction
system.cpu03.op_class::FloatMemWrite               12      0.95%    100.00% # Class of executed instruction
system.cpu03.op_class::IprAccess                    0      0.00%    100.00% # Class of executed instruction
system.cpu03.op_class::InstPrefetch                 0      0.00%    100.00% # Class of executed instruction
system.cpu03.op_class::total                     1268                       # Class of executed instruction
system.cpu03.pwrStateClkGateDist::samples            1                       # Distribution of time spent in the clock gated state
system.cpu03.pwrStateClkGateDist::mean      106848500                       # Distribution of time spent in the clock gated state
system.cpu03.pwrStateClkGateDist::1000-5e+10            1    100.00%    100.00% # Distribution of time spent in the clock gated state
system.cpu03.pwrStateClkGateDist::min_value    106848500                       # Distribution of time spent in the clock gated state
system.cpu03.pwrStateClkGateDist::max_value    106848500                       # Distribution of time spent in the clock gated state
system.cpu03.pwrStateClkGateDist::total             1                       # Distribution of time spent in the clock gated state
system.cpu03.pwrStateResidencyTicks::ON     466161000                       # Cumulative time (in ticks) in various power states
system.cpu03.pwrStateResidencyTicks::CLK_GATED    106848500                       # Cumulative time (in ticks) in various power states
system.cpu04.Branches                             251                       # Number of branches fetched
system.cpu04.committedInsts                      1288                       # Number of instructions committed
system.cpu04.committedOps                        1294                       # Number of ops (including micro ops) committed
system.cpu04.dtb.accesses                           0                       # DTB accesses
system.cpu04.dtb.hits                               0                       # DTB hits
system.cpu04.dtb.misses                             0                       # DTB misses
system.cpu04.dtb.pwrStateResidencyTicks::UNDEFINED    573009500                       # Cumulative time (in ticks) in various power states
system.cpu04.dtb.read_accesses                      0                       # DTB read accesses
system.cpu04.dtb.read_hits                          0                       # DTB read hits
system.cpu04.dtb.read_misses                        0                       # DTB read misses
system.cpu04.dtb.write_accesses                     0                       # DTB write accesses
system.cpu04.dtb.write_hits                         0                       # DTB write hits
system.cpu04.dtb.write_misses                       0                       # DTB write misses
system.cpu04.idle_fraction                   0.978485                       # Percentage of idle cycles
system.cpu04.itb.accesses                           0                       # DTB accesses
system.cpu04.itb.hits                               0                       # DTB hits
system.cpu04.itb.misses                             0                       # DTB misses
system.cpu04.itb.pwrStateResidencyTicks::UNDEFINED    573009500                       # Cumulative time (in ticks) in various power states
system.cpu04.itb.read_accesses                      0                       # DTB read accesses
system.cpu04.itb.read_hits                          0                       # DTB read hits
system.cpu04.itb.read_misses                        0                       # DTB read misses
system.cpu04.itb.write_accesses                     0                       # DTB write accesses
system.cpu04.itb.write_hits                         0                       # DTB write hits
system.cpu04.itb.write_misses                       0                       # DTB write misses
system.cpu04.not_idle_fraction               0.021515                       # Percentage of non-idle cycles
system.cpu04.numCycles                        1145982                       # number of cpu cycles simulated
system.cpu04.numPwrStateTransitions                 2                       # Number of power state transitions
system.cpu04.numWorkItemsCompleted                  0                       # number of work items this cpu completed
system.cpu04.numWorkItemsStarted                    0                       # number of work items this cpu started
system.cpu04.num_busy_cycles             24656.205889                       # Number of busy cycles
system.cpu04.num_conditional_control_insts          129                       # number of instructions that are conditional controls
system.cpu04.num_fp_alu_accesses                   12                       # Number of float alu accesses
system.cpu04.num_fp_insts                          12                       # number of float instructions
system.cpu04.num_fp_register_reads                 12                       # number of times the floating registers were read
system.cpu04.num_fp_register_writes                 0                       # number of times the floating registers were written
system.cpu04.num_func_calls                       122                       # number of times a function call or return occured
system.cpu04.num_idle_cycles             1121325.794111                       # Number of idle cycles
system.cpu04.num_int_alu_accesses                1264                       # Number of integer alu accesses
system.cpu04.num_int_insts                       1264                       # number of integer instructions
system.cpu04.num_int_register_reads              1475                       # number of times the integer registers were read
system.cpu04.num_int_register_writes              895                       # number of times the integer registers were written
system.cpu04.num_load_insts                       296                       # Number of load instructions
system.cpu04.num_mem_refs                         494                       # number of memory refs
system.cpu04.num_store_insts                      198                       # Number of store instructions
system.cpu04.num_vec_alu_accesses                   0                       # Number of vector alu accesses
system.cpu04.num_vec_insts                          0                       # number of vector instructions
system.cpu04.num_vec_register_reads                 0                       # number of times the vector registers were read
system.cpu04.num_vec_register_writes                0                       # number of times the vector registers were written
system.cpu04.op_class::No_OpClass                  10      0.77%      0.77% # Class of executed instruction
system.cpu04.op_class::IntAlu                     789     60.88%     61.65% # Class of executed instruction
system.cpu04.op_class::IntMult                      1      0.08%     61.73% # Class of executed instruction
system.cpu04.op_class::IntDiv                       2      0.15%     61.88% # Class of executed instruction
system.cpu04.op_class::FloatAdd                     0      0.00%     61.88% # Class of executed instruction
system.cpu04.op_class::FloatCmp                     0      0.00%     61.88% # Class of executed instruction
system.cpu04.op_class::FloatCvt                     0      0.00%     61.88% # Class of executed instruction
system.cpu04.op_class::FloatMult                    0      0.00%     61.88% # Class of executed instruction
system.cpu04.op_class::FloatMultAcc                 0      0.00%     61.88% # Class of executed instruction
system.cpu04.op_class::FloatDiv                     0      0.00%     61.88% # Class of executed instruction
system.cpu04.op_class::FloatMisc                    0      0.00%     61.88% # Class of executed instruction
system.cpu04.op_class::FloatSqrt                    0      0.00%     61.88% # Class of executed instruction
system.cpu04.op_class::SimdAdd                      0      0.00%     61.88% # Class of executed instruction
system.cpu04.op_class::SimdAddAcc                   0      0.00%     61.88% # Class of executed instruction
system.cpu04.op_class::SimdAlu                      0      0.00%     61.88% # Class of executed instruction
system.cpu04.op_class::SimdCmp                      0      0.00%     61.88% # Class of executed instruction
system.cpu04.op_class::SimdCvt                      0      0.00%     61.88% # Class of executed instruction
system.cpu04.op_class::SimdMisc                     0      0.00%     61.88% # Class of executed instruction
system.cpu04.op_class::SimdMult                     0      0.00%     61.88% # Class of executed instruction
system.cpu04.op_class::SimdMultAcc                  0      0.00%     61.88% # Class of executed instruction
system.cpu04.op_class::SimdShift                    0      0.00%     61.88% # Class of executed instruction
system.cpu04.op_class::SimdShiftAcc                 0      0.00%     61.88% # Class of executed instruction
system.cpu04.op_class::SimdSqrt                     0      0.00%     61.88% # Class of executed instruction
system.cpu04.op_class::SimdFloatAdd                 0      0.00%     61.88% # Class of executed instruction
system.cpu04.op_class::SimdFloatAlu                 0      0.00%     61.88% # Class of executed instruction
system.cpu04.op_class::SimdFloatCmp                 0      0.00%     61.88% # Class of executed instruction
system.cpu04.op_class::SimdFloatCvt                 0      0.00%     61.88% # Class of executed instruction
system.cpu04.op_class::SimdFloatDiv                 0      0.00%     61.88% # Class of executed instruction
system.cpu04.op_class::SimdFloatMisc                0      0.00%     61.88% # Class of executed instruction
system.cpu04.op_class::SimdFloatMult                0      0.00%     61.88% # Class of executed instruction
system.cpu04.op_class::SimdFloatMultAcc             0      0.00%     61.88% # Class of executed instruction
system.cpu04.op_class::SimdFloatSqrt                0      0.00%     61.88% # Class of executed instruction
system.cpu04.op_class::SimdAes                      0      0.00%     61.88% # Class of executed instruction
system.cpu04.op_class::SimdAesMix                   0      0.00%     61.88% # Class of executed instruction
system.cpu04.op_class::SimdSha1Hash                 0      0.00%     61.88% # Class of executed instruction
system.cpu04.op_class::SimdSha1Hash2                0      0.00%     61.88% # Class of executed instruction
system.cpu04.op_class::SimdSha256Hash               0      0.00%     61.88% # Class of executed instruction
system.cpu04.op_class::SimdSha256Hash2              0      0.00%     61.88% # Class of executed instruction
system.cpu04.op_class::SimdShaSigma2                0      0.00%     61.88% # Class of executed instruction
system.cpu04.op_class::SimdShaSigma3                0      0.00%     61.88% # Class of executed instruction
system.cpu04.op_class::MemRead                    300     23.15%     85.03% # Class of executed instruction
system.cpu04.op_class::MemWrite                   182     14.04%     99.07% # Class of executed instruction
system.cpu04.op_class::FloatMemRead                 0      0.00%     99.07% # Class of executed instruction
system.cpu04.op_class::FloatMemWrite               12      0.93%    100.00% # Class of executed instruction
system.cpu04.op_class::IprAccess                    0      0.00%    100.00% # Class of executed instruction
system.cpu04.op_class::InstPrefetch                 0      0.00%    100.00% # Class of executed instruction
system.cpu04.op_class::total                     1296                       # Class of executed instruction
system.cpu04.pwrStateClkGateDist::samples            1                       # Distribution of time spent in the clock gated state
system.cpu04.pwrStateClkGateDist::mean       97377000                       # Distribution of time spent in the clock gated state
system.cpu04.pwrStateClkGateDist::1000-5e+10            1    100.00%    100.00% # Distribution of time spent in the clock gated state
system.cpu04.pwrStateClkGateDist::min_value     97377000                       # Distribution of time spent in the clock gated state
system.cpu04.pwrStateClkGateDist::max_value     97377000                       # Distribution of time spent in the clock gated state
system.cpu04.pwrStateClkGateDist::total             1                       # Distribution of time spent in the clock gated state
system.cpu04.pwrStateResidencyTicks::ON     475632500                       # Cumulative time (in ticks) in various power states
system.cpu04.pwrStateResidencyTicks::CLK_GATED     97377000                       # Cumulative time (in ticks) in various power states
system.cpu05.Branches                             287                       # Number of branches fetched
system.cpu05.committedInsts                      1484                       # Number of instructions committed
system.cpu05.committedOps                        1490                       # Number of ops (including micro ops) committed
system.cpu05.dtb.accesses                           0                       # DTB accesses
system.cpu05.dtb.hits                               0                       # DTB hits
system.cpu05.dtb.misses                             0                       # DTB misses
system.cpu05.dtb.pwrStateResidencyTicks::UNDEFINED    573009500                       # Cumulative time (in ticks) in various power states
system.cpu05.dtb.read_accesses                      0                       # DTB read accesses
system.cpu05.dtb.read_hits                          0                       # DTB read hits
system.cpu05.dtb.read_misses                        0                       # DTB read misses
system.cpu05.dtb.write_accesses                     0                       # DTB write accesses
system.cpu05.dtb.write_hits                         0                       # DTB write hits
system.cpu05.dtb.write_misses                       0                       # DTB write misses
system.cpu05.idle_fraction                   0.978228                       # Percentage of idle cycles
system.cpu05.itb.accesses                           0                       # DTB accesses
system.cpu05.itb.hits                               0                       # DTB hits
system.cpu05.itb.misses                             0                       # DTB misses
system.cpu05.itb.pwrStateResidencyTicks::UNDEFINED    573009500                       # Cumulative time (in ticks) in various power states
system.cpu05.itb.read_accesses                      0                       # DTB read accesses
system.cpu05.itb.read_hits                          0                       # DTB read hits
system.cpu05.itb.read_misses                        0                       # DTB read misses
system.cpu05.itb.write_accesses                     0                       # DTB write accesses
system.cpu05.itb.write_hits                         0                       # DTB write hits
system.cpu05.itb.write_misses                       0                       # DTB write misses
system.cpu05.not_idle_fraction               0.021772                       # Percentage of non-idle cycles
system.cpu05.numCycles                        1145968                       # number of cpu cycles simulated
system.cpu05.numPwrStateTransitions                 2                       # Number of power state transitions
system.cpu05.numWorkItemsCompleted                  0                       # number of work items this cpu completed
system.cpu05.numWorkItemsStarted                    0                       # number of work items this cpu started
system.cpu05.num_busy_cycles             24949.891590                       # Number of busy cycles
system.cpu05.num_conditional_control_insts          149                       # number of instructions that are conditional controls
system.cpu05.num_fp_alu_accesses                   12                       # Number of float alu accesses
system.cpu05.num_fp_insts                          12                       # number of float instructions
system.cpu05.num_fp_register_reads                 12                       # number of times the floating registers were read
system.cpu05.num_fp_register_writes                 0                       # number of times the floating registers were written
system.cpu05.num_func_calls                       138                       # number of times a function call or return occured
system.cpu05.num_idle_cycles             1121018.108410                       # Number of idle cycles
system.cpu05.num_int_alu_accesses                1458                       # Number of integer alu accesses
system.cpu05.num_int_insts                       1458                       # number of integer instructions
system.cpu05.num_int_register_reads              1696                       # number of times the integer registers were read
system.cpu05.num_int_register_writes             1040                       # number of times the integer registers were written
system.cpu05.num_load_insts                       343                       # Number of load instructions
system.cpu05.num_mem_refs                         562                       # number of memory refs
system.cpu05.num_store_insts                      219                       # Number of store instructions
system.cpu05.num_vec_alu_accesses                   0                       # Number of vector alu accesses
system.cpu05.num_vec_insts                          0                       # number of vector instructions
system.cpu05.num_vec_register_reads                 0                       # number of times the vector registers were read
system.cpu05.num_vec_register_writes                0                       # number of times the vector registers were written
system.cpu05.op_class::No_OpClass                  10      0.67%      0.67% # Class of executed instruction
system.cpu05.op_class::IntAlu                     917     61.46%     62.13% # Class of executed instruction
system.cpu05.op_class::IntMult                      1      0.07%     62.20% # Class of executed instruction
system.cpu05.op_class::IntDiv                       2      0.13%     62.33% # Class of executed instruction
system.cpu05.op_class::FloatAdd                     0      0.00%     62.33% # Class of executed instruction
system.cpu05.op_class::FloatCmp                     0      0.00%     62.33% # Class of executed instruction
system.cpu05.op_class::FloatCvt                     0      0.00%     62.33% # Class of executed instruction
system.cpu05.op_class::FloatMult                    0      0.00%     62.33% # Class of executed instruction
system.cpu05.op_class::FloatMultAcc                 0      0.00%     62.33% # Class of executed instruction
system.cpu05.op_class::FloatDiv                     0      0.00%     62.33% # Class of executed instruction
system.cpu05.op_class::FloatMisc                    0      0.00%     62.33% # Class of executed instruction
system.cpu05.op_class::FloatSqrt                    0      0.00%     62.33% # Class of executed instruction
system.cpu05.op_class::SimdAdd                      0      0.00%     62.33% # Class of executed instruction
system.cpu05.op_class::SimdAddAcc                   0      0.00%     62.33% # Class of executed instruction
system.cpu05.op_class::SimdAlu                      0      0.00%     62.33% # Class of executed instruction
system.cpu05.op_class::SimdCmp                      0      0.00%     62.33% # Class of executed instruction
system.cpu05.op_class::SimdCvt                      0      0.00%     62.33% # Class of executed instruction
system.cpu05.op_class::SimdMisc                     0      0.00%     62.33% # Class of executed instruction
system.cpu05.op_class::SimdMult                     0      0.00%     62.33% # Class of executed instruction
system.cpu05.op_class::SimdMultAcc                  0      0.00%     62.33% # Class of executed instruction
system.cpu05.op_class::SimdShift                    0      0.00%     62.33% # Class of executed instruction
system.cpu05.op_class::SimdShiftAcc                 0      0.00%     62.33% # Class of executed instruction
system.cpu05.op_class::SimdSqrt                     0      0.00%     62.33% # Class of executed instruction
system.cpu05.op_class::SimdFloatAdd                 0      0.00%     62.33% # Class of executed instruction
system.cpu05.op_class::SimdFloatAlu                 0      0.00%     62.33% # Class of executed instruction
system.cpu05.op_class::SimdFloatCmp                 0      0.00%     62.33% # Class of executed instruction
system.cpu05.op_class::SimdFloatCvt                 0      0.00%     62.33% # Class of executed instruction
system.cpu05.op_class::SimdFloatDiv                 0      0.00%     62.33% # Class of executed instruction
system.cpu05.op_class::SimdFloatMisc                0      0.00%     62.33% # Class of executed instruction
system.cpu05.op_class::SimdFloatMult                0      0.00%     62.33% # Class of executed instruction
system.cpu05.op_class::SimdFloatMultAcc             0      0.00%     62.33% # Class of executed instruction
system.cpu05.op_class::SimdFloatSqrt                0      0.00%     62.33% # Class of executed instruction
system.cpu05.op_class::SimdAes                      0      0.00%     62.33% # Class of executed instruction
system.cpu05.op_class::SimdAesMix                   0      0.00%     62.33% # Class of executed instruction
system.cpu05.op_class::SimdSha1Hash                 0      0.00%     62.33% # Class of executed instruction
system.cpu05.op_class::SimdSha1Hash2                0      0.00%     62.33% # Class of executed instruction
system.cpu05.op_class::SimdSha256Hash               0      0.00%     62.33% # Class of executed instruction
system.cpu05.op_class::SimdSha256Hash2              0      0.00%     62.33% # Class of executed instruction
system.cpu05.op_class::SimdShaSigma2                0      0.00%     62.33% # Class of executed instruction
system.cpu05.op_class::SimdShaSigma3                0      0.00%     62.33% # Class of executed instruction
system.cpu05.op_class::MemRead                    347     23.26%     85.59% # Class of executed instruction
system.cpu05.op_class::MemWrite                   203     13.61%     99.20% # Class of executed instruction
system.cpu05.op_class::FloatMemRead                 0      0.00%     99.20% # Class of executed instruction
system.cpu05.op_class::FloatMemWrite               12      0.80%    100.00% # Class of executed instruction
system.cpu05.op_class::IprAccess                    0      0.00%    100.00% # Class of executed instruction
system.cpu05.op_class::InstPrefetch                 0      0.00%    100.00% # Class of executed instruction
system.cpu05.op_class::total                     1492                       # Class of executed instruction
system.cpu05.pwrStateClkGateDist::samples            1                       # Distribution of time spent in the clock gated state
system.cpu05.pwrStateClkGateDist::mean       88768000                       # Distribution of time spent in the clock gated state
system.cpu05.pwrStateClkGateDist::1000-5e+10            1    100.00%    100.00% # Distribution of time spent in the clock gated state
system.cpu05.pwrStateClkGateDist::min_value     88768000                       # Distribution of time spent in the clock gated state
system.cpu05.pwrStateClkGateDist::max_value     88768000                       # Distribution of time spent in the clock gated state
system.cpu05.pwrStateClkGateDist::total             1                       # Distribution of time spent in the clock gated state
system.cpu05.pwrStateResidencyTicks::ON     484241500                       # Cumulative time (in ticks) in various power states
system.cpu05.pwrStateResidencyTicks::CLK_GATED     88768000                       # Cumulative time (in ticks) in various power states
system.cpu06.Branches                             246                       # Number of branches fetched
system.cpu06.committedInsts                      1260                       # Number of instructions committed
system.cpu06.committedOps                        1266                       # Number of ops (including micro ops) committed
system.cpu06.dtb.accesses                           0                       # DTB accesses
system.cpu06.dtb.hits                               0                       # DTB hits
system.cpu06.dtb.misses                             0                       # DTB misses
system.cpu06.dtb.pwrStateResidencyTicks::UNDEFINED    573009500                       # Cumulative time (in ticks) in various power states
system.cpu06.dtb.read_accesses                      0                       # DTB read accesses
system.cpu06.dtb.read_hits                          0                       # DTB read hits
system.cpu06.dtb.read_misses                        0                       # DTB read misses
system.cpu06.dtb.write_accesses                     0                       # DTB write accesses
system.cpu06.dtb.write_hits                         0                       # DTB write hits
system.cpu06.dtb.write_misses                       0                       # DTB write misses
system.cpu06.idle_fraction                   0.979207                       # Percentage of idle cycles
system.cpu06.itb.accesses                           0                       # DTB accesses
system.cpu06.itb.hits                               0                       # DTB hits
system.cpu06.itb.misses                             0                       # DTB misses
system.cpu06.itb.pwrStateResidencyTicks::UNDEFINED    573009500                       # Cumulative time (in ticks) in various power states
system.cpu06.itb.read_accesses                      0                       # DTB read accesses
system.cpu06.itb.read_hits                          0                       # DTB read hits
system.cpu06.itb.read_misses                        0                       # DTB read misses
system.cpu06.itb.write_accesses                     0                       # DTB write accesses
system.cpu06.itb.write_hits                         0                       # DTB write hits
system.cpu06.itb.write_misses                       0                       # DTB write misses
system.cpu06.not_idle_fraction               0.020793                       # Percentage of non-idle cycles
system.cpu06.numCycles                        1146004                       # number of cpu cycles simulated
system.cpu06.numPwrStateTransitions                 2                       # Number of power state transitions
system.cpu06.numWorkItemsCompleted                  0                       # number of work items this cpu completed
system.cpu06.numWorkItemsStarted                    0                       # number of work items this cpu started
system.cpu06.num_busy_cycles             23828.690066                       # Number of busy cycles
system.cpu06.num_conditional_control_insts          126                       # number of instructions that are conditional controls
system.cpu06.num_fp_alu_accesses                   12                       # Number of float alu accesses
system.cpu06.num_fp_insts                          12                       # number of float instructions
system.cpu06.num_fp_register_reads                 12                       # number of times the floating registers were read
system.cpu06.num_fp_register_writes                 0                       # number of times the floating registers were written
system.cpu06.num_func_calls                       120                       # number of times a function call or return occured
system.cpu06.num_idle_cycles             1122175.309934                       # Number of idle cycles
system.cpu06.num_int_alu_accesses                1236                       # Number of integer alu accesses
system.cpu06.num_int_insts                       1236                       # number of integer instructions
system.cpu06.num_int_register_reads              1443                       # number of times the integer registers were read
system.cpu06.num_int_register_writes              874                       # number of times the integer registers were written
system.cpu06.num_load_insts                       289                       # Number of load instructions
system.cpu06.num_mem_refs                         484                       # number of memory refs
system.cpu06.num_store_insts                      195                       # Number of store instructions
system.cpu06.num_vec_alu_accesses                   0                       # Number of vector alu accesses
system.cpu06.num_vec_insts                          0                       # number of vector instructions
system.cpu06.num_vec_register_reads                 0                       # number of times the vector registers were read
system.cpu06.num_vec_register_writes                0                       # number of times the vector registers were written
system.cpu06.op_class::No_OpClass                  10      0.79%      0.79% # Class of executed instruction
system.cpu06.op_class::IntAlu                     771     60.80%     61.59% # Class of executed instruction
system.cpu06.op_class::IntMult                      1      0.08%     61.67% # Class of executed instruction
system.cpu06.op_class::IntDiv                       2      0.16%     61.83% # Class of executed instruction
system.cpu06.op_class::FloatAdd                     0      0.00%     61.83% # Class of executed instruction
system.cpu06.op_class::FloatCmp                     0      0.00%     61.83% # Class of executed instruction
system.cpu06.op_class::FloatCvt                     0      0.00%     61.83% # Class of executed instruction
system.cpu06.op_class::FloatMult                    0      0.00%     61.83% # Class of executed instruction
system.cpu06.op_class::FloatMultAcc                 0      0.00%     61.83% # Class of executed instruction
system.cpu06.op_class::FloatDiv                     0      0.00%     61.83% # Class of executed instruction
system.cpu06.op_class::FloatMisc                    0      0.00%     61.83% # Class of executed instruction
system.cpu06.op_class::FloatSqrt                    0      0.00%     61.83% # Class of executed instruction
system.cpu06.op_class::SimdAdd                      0      0.00%     61.83% # Class of executed instruction
system.cpu06.op_class::SimdAddAcc                   0      0.00%     61.83% # Class of executed instruction
system.cpu06.op_class::SimdAlu                      0      0.00%     61.83% # Class of executed instruction
system.cpu06.op_class::SimdCmp                      0      0.00%     61.83% # Class of executed instruction
system.cpu06.op_class::SimdCvt                      0      0.00%     61.83% # Class of executed instruction
system.cpu06.op_class::SimdMisc                     0      0.00%     61.83% # Class of executed instruction
system.cpu06.op_class::SimdMult                     0      0.00%     61.83% # Class of executed instruction
system.cpu06.op_class::SimdMultAcc                  0      0.00%     61.83% # Class of executed instruction
system.cpu06.op_class::SimdShift                    0      0.00%     61.83% # Class of executed instruction
system.cpu06.op_class::SimdShiftAcc                 0      0.00%     61.83% # Class of executed instruction
system.cpu06.op_class::SimdSqrt                     0      0.00%     61.83% # Class of executed instruction
system.cpu06.op_class::SimdFloatAdd                 0      0.00%     61.83% # Class of executed instruction
system.cpu06.op_class::SimdFloatAlu                 0      0.00%     61.83% # Class of executed instruction
system.cpu06.op_class::SimdFloatCmp                 0      0.00%     61.83% # Class of executed instruction
system.cpu06.op_class::SimdFloatCvt                 0      0.00%     61.83% # Class of executed instruction
system.cpu06.op_class::SimdFloatDiv                 0      0.00%     61.83% # Class of executed instruction
system.cpu06.op_class::SimdFloatMisc                0      0.00%     61.83% # Class of executed instruction
system.cpu06.op_class::SimdFloatMult                0      0.00%     61.83% # Class of executed instruction
system.cpu06.op_class::SimdFloatMultAcc             0      0.00%     61.83% # Class of executed instruction
system.cpu06.op_class::SimdFloatSqrt                0      0.00%     61.83% # Class of executed instruction
system.cpu06.op_class::SimdAes                      0      0.00%     61.83% # Class of executed instruction
system.cpu06.op_class::SimdAesMix                   0      0.00%     61.83% # Class of executed instruction
system.cpu06.op_class::SimdSha1Hash                 0      0.00%     61.83% # Class of executed instruction
system.cpu06.op_class::SimdSha1Hash2                0      0.00%     61.83% # Class of executed instruction
system.cpu06.op_class::SimdSha256Hash               0      0.00%     61.83% # Class of executed instruction
system.cpu06.op_class::SimdSha256Hash2              0      0.00%     61.83% # Class of executed instruction
system.cpu06.op_class::SimdShaSigma2                0      0.00%     61.83% # Class of executed instruction
system.cpu06.op_class::SimdShaSigma3                0      0.00%     61.83% # Class of executed instruction
system.cpu06.op_class::MemRead                    293     23.11%     84.94% # Class of executed instruction
system.cpu06.op_class::MemWrite                   179     14.12%     99.05% # Class of executed instruction
system.cpu06.op_class::FloatMemRead                 0      0.00%     99.05% # Class of executed instruction
system.cpu06.op_class::FloatMemWrite               12      0.95%    100.00% # Class of executed instruction
system.cpu06.op_class::IprAccess                    0      0.00%    100.00% # Class of executed instruction
system.cpu06.op_class::InstPrefetch                 0      0.00%    100.00% # Class of executed instruction
system.cpu06.op_class::total                     1268                       # Class of executed instruction
system.cpu06.pwrStateClkGateDist::samples            1                       # Distribution of time spent in the clock gated state
system.cpu06.pwrStateClkGateDist::mean       80269000                       # Distribution of time spent in the clock gated state
system.cpu06.pwrStateClkGateDist::1000-5e+10            1    100.00%    100.00% # Distribution of time spent in the clock gated state
system.cpu06.pwrStateClkGateDist::min_value     80269000                       # Distribution of time spent in the clock gated state
[...]
system.ruby.network.int_links39.credit_link.pwrStateResidencyTicks::UNDEFINED    573009500                       # Cumulative time (in ticks) in various power states
system.ruby.network.int_links39.network_link.pwrStateResidencyTicks::UNDEFINED    573009500                       # Cumulative time (in ticks) in various power states
system.ruby.network.int_links40.credit_link.pwrStateResidencyTicks::UNDEFINED    573009500                       # Cumulative time (in ticks) in various power states
system.ruby.network.int_links40.network_link.pwrStateResidencyTicks::UNDEFINED    573009500                       # Cumulative time (in ticks) in various power states
system.ruby.network.int_links41.credit_link.pwrStateResidencyTicks::UNDEFINED    573009500                       # Cumulative time (in ticks) in various power states
system.ruby.network.int_links41.network_link.pwrStateResidencyTicks::UNDEFINED    573009500                       # Cumulative time (in ticks) in various power states
system.ruby.network.int_links42.credit_link.pwrStateResidencyTicks::UNDEFINED    573009500                       # Cumulative time (in ticks) in various power states
system.ruby.network.int_links42.network_link.pwrStateResidencyTicks::UNDEFINED    573009500                       # Cumulative time (in ticks) in various power states
system.ruby.network.int_links43.credit_link.pwrStateResidencyTicks::UNDEFINED    573009500                       # Cumulative time (in ticks) in various power states
system.ruby.network.int_links43.network_link.pwrStateResidencyTicks::UNDEFINED    573009500                       # Cumulative time (in ticks) in various power states
system.ruby.network.int_links44.credit_link.pwrStateResidencyTicks::UNDEFINED    573009500                       # Cumulative time (in ticks) in various power states
system.ruby.network.int_links44.network_link.pwrStateResidencyTicks::UNDEFINED    573009500                       # Cumulative time (in ticks) in various power states
system.ruby.network.int_links45.credit_link.pwrStateResidencyTicks::UNDEFINED    573009500                       # Cumulative time (in ticks) in various power states
system.ruby.network.int_links45.network_link.pwrStateResidencyTicks::UNDEFINED    573009500                       # Cumulative time (in ticks) in various power states
system.ruby.network.int_links46.credit_link.pwrStateResidencyTicks::UNDEFINED    573009500                       # Cumulative time (in ticks) in various power states
system.ruby.network.int_links46.network_link.pwrStateResidencyTicks::UNDEFINED    573009500                       # Cumulative time (in ticks) in various power states
system.ruby.network.int_links47.credit_link.pwrStateResidencyTicks::UNDEFINED    573009500                       # Cumulative time (in ticks) in various power states
system.ruby.network.int_links47.network_link.pwrStateResidencyTicks::UNDEFINED    573009500                       # Cumulative time (in ticks) in various power states
system.ruby.network.netifs00.pwrStateResidencyTicks::UNDEFINED    573009500                       # Cumulative time (in ticks) in various power states
system.ruby.network.netifs01.pwrStateResidencyTicks::UNDEFINED    573009500                       # Cumulative time (in ticks) in various power states
system.ruby.network.netifs02.pwrStateResidencyTicks::UNDEFINED    573009500                       # Cumulative time (in ticks) in various power states
system.ruby.network.netifs03.pwrStateResidencyTicks::UNDEFINED    573009500                       # Cumulative time (in ticks) in various power states
system.ruby.network.netifs04.pwrStateResidencyTicks::UNDEFINED    573009500                       # Cumulative time (in ticks) in various power states
system.ruby.network.netifs05.pwrStateResidencyTicks::UNDEFINED    573009500                       # Cumulative time (in ticks) in various power states
system.ruby.network.netifs06.pwrStateResidencyTicks::UNDEFINED    573009500                       # Cumulative time (in ticks) in various power states
system.ruby.network.netifs07.pwrStateResidencyTicks::UNDEFINED    573009500                       # Cumulative time (in ticks) in various power states
system.ruby.network.netifs08.pwrStateResidencyTicks::UNDEFINED    573009500                       # Cumulative time (in ticks) in various power states
system.ruby.network.netifs09.pwrStateResidencyTicks::UNDEFINED    573009500                       # Cumulative time (in ticks) in various power states
system.ruby.network.netifs10.pwrStateResidencyTicks::UNDEFINED    573009500                       # Cumulative time (in ticks) in various power states
system.ruby.network.netifs11.pwrStateResidencyTicks::UNDEFINED    573009500                       # Cumulative time (in ticks) in various power states
system.ruby.network.netifs12.pwrStateResidencyTicks::UNDEFINED    573009500                       # Cumulative time (in ticks) in various power states
system.ruby.network.netifs13.pwrStateResidencyTicks::UNDEFINED    573009500                       # Cumulative time (in ticks) in various power states
system.ruby.network.netifs14.pwrStateResidencyTicks::UNDEFINED    573009500                       # Cumulative time (in ticks) in various power states
system.ruby.network.netifs15.pwrStateResidencyTicks::UNDEFINED    573009500                       # Cumulative time (in ticks) in various power states
system.ruby.network.netifs16.pwrStateResidencyTicks::UNDEFINED    573009500                       # Cumulative time (in ticks) in various power states
system.ruby.network.netifs17.pwrStateResidencyTicks::UNDEFINED    573009500                       # Cumulative time (in ticks) in various power states
system.ruby.network.netifs18.pwrStateResidencyTicks::UNDEFINED    573009500                       # Cumulative time (in ticks) in various power states
system.ruby.network.netifs19.pwrStateResidencyTicks::UNDEFINED    573009500                       # Cumulative time (in ticks) in various power states
system.ruby.network.netifs20.pwrStateResidencyTicks::UNDEFINED    573009500                       # Cumulative time (in ticks) in various power states
system.ruby.network.netifs21.pwrStateResidencyTicks::UNDEFINED    573009500                       # Cumulative time (in ticks) in various power states
system.ruby.network.netifs22.pwrStateResidencyTicks::UNDEFINED    573009500                       # Cumulative time (in ticks) in various power states
system.ruby.network.netifs23.pwrStateResidencyTicks::UNDEFINED    573009500                       # Cumulative time (in ticks) in various power states
system.ruby.network.netifs24.pwrStateResidencyTicks::UNDEFINED    573009500                       # Cumulative time (in ticks) in various power states
system.ruby.network.netifs25.pwrStateResidencyTicks::UNDEFINED    573009500                       # Cumulative time (in ticks) in various power states
system.ruby.network.netifs26.pwrStateResidencyTicks::UNDEFINED    573009500                       # Cumulative time (in ticks) in various power states
system.ruby.network.netifs27.pwrStateResidencyTicks::UNDEFINED    573009500                       # Cumulative time (in ticks) in various power states
system.ruby.network.netifs28.pwrStateResidencyTicks::UNDEFINED    573009500                       # Cumulative time (in ticks) in various power states
system.ruby.network.netifs29.pwrStateResidencyTicks::UNDEFINED    573009500                       # Cumulative time (in ticks) in various power states
system.ruby.network.netifs30.pwrStateResidencyTicks::UNDEFINED    573009500                       # Cumulative time (in ticks) in various power states
system.ruby.network.netifs31.pwrStateResidencyTicks::UNDEFINED    573009500                       # Cumulative time (in ticks) in various power states
system.ruby.network.netifs32.pwrStateResidencyTicks::UNDEFINED    573009500                       # Cumulative time (in ticks) in various power states
system.ruby.network.netifs33.pwrStateResidencyTicks::UNDEFINED    573009500                       # Cumulative time (in ticks) in various power states
system.ruby.network.netifs34.pwrStateResidencyTicks::UNDEFINED    573009500                       # Cumulative time (in ticks) in various power states
system.ruby.network.netifs35.pwrStateResidencyTicks::UNDEFINED    573009500                       # Cumulative time (in ticks) in various power states
system.ruby.network.packet_network_latency |      246645                       |      431611                       |       86965                      
system.ruby.network.packet_queueing_latency |      124612                       |       99139                       |       15977                      
system.ruby.network.packets_injected     |       22378     34.05%     34.05% |       33269     50.63%     84.68% |       10068     15.32%    100.00%
system.ruby.network.packets_injected::total        65715                      
system.ruby.network.packets_received     |       22377     34.06%     34.06% |       33258     50.62%     84.68% |       10068     15.32%    100.00%
system.ruby.network.packets_received::total        65703                      
system.ruby.network.pwrStateResidencyTicks::UNDEFINED    573009500                       # Cumulative time (in ticks) in various power states
system.ruby.network.routers00.buffer_reads       104795                      
system.ruby.network.routers00.buffer_writes       104795                      
system.ruby.network.routers00.crossbar_activity       104795                      
system.ruby.network.routers00.pwrStateResidencyTicks::UNDEFINED    573009500                       # Cumulative time (in ticks) in various power states
system.ruby.network.routers00.sw_input_arbiter_activity       104941                      
system.ruby.network.routers00.sw_output_arbiter_activity       104795                      
system.ruby.network.routers01.buffer_reads        49521                      
system.ruby.network.routers01.buffer_writes        49521                      
system.ruby.network.routers01.crossbar_activity        49521                      
system.ruby.network.routers01.pwrStateResidencyTicks::UNDEFINED    573009500                       # Cumulative time (in ticks) in various power states
system.ruby.network.routers01.sw_input_arbiter_activity        49576                      
system.ruby.network.routers01.sw_output_arbiter_activity        49521                      
system.ruby.network.routers02.buffer_reads        35296                      
system.ruby.network.routers02.buffer_writes        35296                      
system.ruby.network.routers02.crossbar_activity        35295                      
system.ruby.network.routers02.pwrStateResidencyTicks::UNDEFINED    573009500                       # Cumulative time (in ticks) in various power states
system.ruby.network.routers02.sw_input_arbiter_activity        35338                      
system.ruby.network.routers02.sw_output_arbiter_activity        35295                      
system.ruby.network.routers03.buffer_reads        25401                      
system.ruby.network.routers03.buffer_writes        25401                      
system.ruby.network.routers03.crossbar_activity        25399                      
system.ruby.network.routers03.pwrStateResidencyTicks::UNDEFINED    573009500                       # Cumulative time (in ticks) in various power states
system.ruby.network.routers03.sw_input_arbiter_activity        25474                      
system.ruby.network.routers03.sw_output_arbiter_activity        25399                      
system.ruby.network.routers04.buffer_reads        61373                      
system.ruby.network.routers04.buffer_writes        61373                      
system.ruby.network.routers04.crossbar_activity        61373                      
system.ruby.network.routers04.pwrStateResidencyTicks::UNDEFINED    573009500                       # Cumulative time (in ticks) in various power states
system.ruby.network.routers04.sw_input_arbiter_activity        61594                      
system.ruby.network.routers04.sw_output_arbiter_activity        61373                      
system.ruby.network.routers05.buffer_reads        25744                      
system.ruby.network.routers05.buffer_writes        25744                      
system.ruby.network.routers05.crossbar_activity        25744                      
system.ruby.network.routers05.pwrStateResidencyTicks::UNDEFINED    573009500                       # Cumulative time (in ticks) in various power states
system.ruby.network.routers05.sw_input_arbiter_activity        25764                      
system.ruby.network.routers05.sw_output_arbiter_activity        25744                      
system.ruby.network.routers06.buffer_reads        20262                      
system.ruby.network.routers06.buffer_writes        20262                      
system.ruby.network.routers06.crossbar_activity        20262                      
system.ruby.network.routers06.pwrStateResidencyTicks::UNDEFINED    573009500                       # Cumulative time (in ticks) in various power states
system.ruby.network.routers06.sw_input_arbiter_activity        20320                      
system.ruby.network.routers06.sw_output_arbiter_activity        20262                      
system.ruby.network.routers07.buffer_reads        20590                      
system.ruby.network.routers07.buffer_writes        20590                      
system.ruby.network.routers07.crossbar_activity        20590                      
system.ruby.network.routers07.pwrStateResidencyTicks::UNDEFINED    573009500                       # Cumulative time (in ticks) in various power states
system.ruby.network.routers07.sw_input_arbiter_activity        20710                      
system.ruby.network.routers07.sw_output_arbiter_activity        20590                      
system.ruby.network.routers08.buffer_reads        46512                      
system.ruby.network.routers08.buffer_writes        46512                      
system.ruby.network.routers08.crossbar_activity        46511                      
system.ruby.network.routers08.pwrStateResidencyTicks::UNDEFINED    573009500                       # Cumulative time (in ticks) in various power states
system.ruby.network.routers08.sw_input_arbiter_activity        47117                      
system.ruby.network.routers08.sw_output_arbiter_activity        46511                      
system.ruby.network.routers09.buffer_reads        23114                      
system.ruby.network.routers09.buffer_writes        23114                      
system.ruby.network.routers09.crossbar_activity        23114                      
system.ruby.network.routers09.pwrStateResidencyTicks::UNDEFINED    573009500                       # Cumulative time (in ticks) in various power states
system.ruby.network.routers09.sw_input_arbiter_activity        23187                      
system.ruby.network.routers09.sw_output_arbiter_activity        23114                      
system.ruby.network.routers10.buffer_reads        24047                      
system.ruby.network.routers10.buffer_writes        24047                      
system.ruby.network.routers10.crossbar_activity        24047                      
system.ruby.network.routers10.pwrStateResidencyTicks::UNDEFINED    573009500                       # Cumulative time (in ticks) in various power states
system.ruby.network.routers10.sw_input_arbiter_activity        24141                      
system.ruby.network.routers10.sw_output_arbiter_activity        24047                      
system.ruby.network.routers11.buffer_reads        27908                      
system.ruby.network.routers11.buffer_writes        27908                      
system.ruby.network.routers11.crossbar_activity        27904                      
system.ruby.network.routers11.pwrStateResidencyTicks::UNDEFINED    573009500                       # Cumulative time (in ticks) in various power states
system.ruby.network.routers11.sw_input_arbiter_activity        28697                      
system.ruby.network.routers11.sw_output_arbiter_activity        27904                      
system.ruby.network.routers12.buffer_reads        44586                      
system.ruby.network.routers12.buffer_writes        44586                      
system.ruby.network.routers12.crossbar_activity        44584                      
system.ruby.network.routers12.pwrStateResidencyTicks::UNDEFINED    573009500                       # Cumulative time (in ticks) in various power states
system.ruby.network.routers12.sw_input_arbiter_activity        45462                      
system.ruby.network.routers12.sw_output_arbiter_activity        44584                      
system.ruby.network.routers13.buffer_reads        32415                      
system.ruby.network.routers13.buffer_writes        32415                      
system.ruby.network.routers13.crossbar_activity        32415                      
system.ruby.network.routers13.pwrStateResidencyTicks::UNDEFINED    573009500                       # Cumulative time (in ticks) in various power states
system.ruby.network.routers13.sw_input_arbiter_activity        32496                      
system.ruby.network.routers13.sw_output_arbiter_activity        32415                      
system.ruby.network.routers14.buffer_reads        27608                      
system.ruby.network.routers14.buffer_writes        27608                      
system.ruby.network.routers14.crossbar_activity        27608                      
system.ruby.network.routers14.pwrStateResidencyTicks::UNDEFINED    573009500                       # Cumulative time (in ticks) in various power states
system.ruby.network.routers14.sw_input_arbiter_activity        27708                      
system.ruby.network.routers14.sw_output_arbiter_activity        27608                      
system.ruby.network.routers15.buffer_reads        23150                      
system.ruby.network.routers15.buffer_writes        23150                      
system.ruby.network.routers15.crossbar_activity        23148                      
system.ruby.network.routers15.pwrStateResidencyTicks::UNDEFINED    573009500                       # Cumulative time (in ticks) in various power states
system.ruby.network.routers15.sw_input_arbiter_activity        23432                      
system.ruby.network.routers15.sw_output_arbiter_activity        23148                      
system.ruby.outstanding_req_hist_seqr::bucket_size            1                      
system.ruby.outstanding_req_hist_seqr::max_bucket            9                      
system.ruby.outstanding_req_hist_seqr::samples       191675                      
system.ruby.outstanding_req_hist_seqr::mean            1                      
system.ruby.outstanding_req_hist_seqr::gmean            1                      
system.ruby.outstanding_req_hist_seqr    |           0      0.00%      0.00% |      191675    100.00%    100.00% |           0      0.00%    100.00% |           0      0.00%    100.00% |           0      0.00%    100.00% |           0      0.00%    100.00% |           0      0.00%    100.00% |           0      0.00%    100.00% |           0      0.00%    100.00% |           0      0.00%    100.00%
system.ruby.outstanding_req_hist_seqr::total       191675                      
system.ruby.pwrStateResidencyTicks::UNDEFINED    573009500                       # Cumulative time (in ticks) in various power states
system.sys_port_proxy.pwrStateResidencyTicks::UNDEFINED    573009500                       # Cumulative time (in ticks) in various power states
system.voltage_domain.voltage                       1                       # Voltage in Volts

---------- End Simulation Statistics   ----------
