
---------- Begin Simulation Statistics ----------
final_tick                                  764750500                       # Number of ticks from beginning of simulation (restored from checkpoints and never reset)
host_inst_rate                                  15098                       # Simulator instruction rate (inst/s)
host_mem_usage                                5159404                       # Number of bytes of host memory used
host_op_rate                                    15146                       # Simulator op (including micro ops) rate (op/s)
host_seconds                                     7.85                       # Real time elapsed on the host
host_tick_rate                               97376463                       # Simulator tick rate (ticks/s)
sim_freq                                 1000000000000                       # Frequency of simulated ticks
sim_insts                                      118567                       # Number of instructions simulated
sim_ops                                        118949                       # Number of ops (including micro ops) simulated
sim_seconds                                  0.000765                       # Number of seconds simulated
sim_ticks                                   764750500                       # Number of ticks simulated
system.clk_domain.clock                          1000                       # Clock period in ticks
system.cpu00.Branches                           22346                       # Number of branches fetched
system.cpu00.committedInsts                    100000                       # Number of instructions committed
system.cpu00.committedOps                      100293                       # Number of ops (including micro ops) committed
system.cpu00.dtb.accesses                           0                       # DTB accesses
system.cpu00.dtb.hits                               0                       # DTB hits
system.cpu00.dtb.misses                             0                       # DTB misses
system.cpu00.dtb.pwrStateResidencyTicks::UNDEFINED    764750500                       # Cumulative time (in ticks) in various power states
system.cpu00.dtb.read_accesses                      0                       # DTB read accesses
system.cpu00.dtb.read_hits                          0                       # DTB read hits
system.cpu00.dtb.read_misses                        0                       # DTB read misses
system.cpu00.dtb.write_accesses                     0                       # DTB write accesses
system.cpu00.dtb.write_hits                         0                       # DTB write hits
system.cpu00.dtb.write_misses                       0                       # DTB write misses
system.cpu00.idle_fraction                   0.002670                       # Percentage of idle cycles
system.cpu00.itb.accesses                           0                       # DTB accesses
system.cpu00.itb.hits                               0                       # DTB hits
system.cpu00.itb.misses                             0                       # DTB misses
system.cpu00.itb.pwrStateResidencyTicks::UNDEFINED    764750500                       # Cumulative time (in ticks) in various power states
system.cpu00.itb.read_accesses                      0                       # DTB read accesses
system.cpu00.itb.read_hits                          0                       # DTB read hits
system.cpu00.itb.read_misses                        0                       # DTB read misses
system.cpu00.itb.write_accesses                     0                       # DTB write accesses
system.cpu00.itb.write_hits                         0                       # DTB write hits
system.cpu00.itb.write_misses                       0                       # DTB write misses
system.cpu00.not_idle_fraction               0.997330                       # Percentage of non-idle cycles
system.cpu00.numCycles                        1529501                       # number of cpu cycles simulated
system.cpu00.numPwrStateTransitions                 2                       # Number of power state transitions
system.cpu00.numWorkItemsCompleted                  0                       # number of work items this cpu completed
system.cpu00.numWorkItemsStarted                    0                       # number of work items this cpu started
system.cpu00.num_busy_cycles             1525417.000005                       # Number of busy cycles
system.cpu00.num_conditional_control_insts        15926                       # number of instructions that are conditional controls
system.cpu00.num_fp_alu_accesses                   12                       # Number of float alu accesses
system.cpu00.num_fp_insts                          12                       # number of float instructions
system.cpu00.num_fp_register_reads                 12                       # number of times the floating registers were read
system.cpu00.num_fp_register_writes                 0                       # number of times the floating registers were written
system.cpu00.num_func_calls                      6420                       # number of times a function call or return occured
system.cpu00.num_idle_cycles              4083.999995                       # Number of idle cycles
system.cpu00.num_int_alu_accesses               98833                       # Number of integer alu accesses
system.cpu00.num_int_insts                      98833                       # number of integer instructions
system.cpu00.num_int_register_reads            120838                       # number of times the integer registers were read
system.cpu00.num_int_register_writes            64473                       # number of times the integer registers were written
system.cpu00.num_load_insts                     20291                       # Number of load instructions
system.cpu00.num_mem_refs                       36557                       # number of memory refs
system.cpu00.num_store_insts                    16266                       # Number of store instructions
system.cpu00.num_vec_alu_accesses                   0                       # Number of vector alu accesses
system.cpu00.num_vec_insts                          0                       # number of vector instructions
system.cpu00.num_vec_register_reads                 0                       # number of times the vector registers were read
system.cpu00.num_vec_register_writes                0                       # number of times the vector registers were written
system.cpu00.op_class::No_OpClass                 859      0.86%      0.86% # Class of executed instruction
system.cpu00.op_class::IntAlu                   62913     62.68%     63.54% # Class of executed instruction
system.cpu00.op_class::IntMult                     30      0.03%     63.57% # Class of executed instruction
system.cpu00.op_class::IntDiv                       6      0.01%     63.58% # Class of executed instruction
system.cpu00.op_class::FloatAdd                     0      0.00%     63.58% # Class of executed instruction
system.cpu00.op_class::FloatCmp                     0      0.00%     63.58% # Class of executed instruction
system.cpu00.op_class::FloatCvt                     0      0.00%     63.58% # Class of executed instruction
system.cpu00.op_class::FloatMult                    0      0.00%     63.58% # Class of executed instruction
system.cpu00.op_class::FloatMultAcc                 0      0.00%     63.58% # Class of executed instruction
system.cpu00.op_class::FloatDiv                     0      0.00%     63.58% # Class of executed instruction
system.cpu00.op_class::FloatMisc                    0      0.00%     63.58% # Class of executed instruction
system.cpu00.op_class::FloatSqrt                    0      0.00%     63.58% # Class of executed instruction
system.cpu00.op_class::SimdAdd                      0      0.00%     63.58% # Class of executed instruction
system.cpu00.op_class::SimdAddAcc                   0      0.00%     63.58% # Class of executed instruction
system.cpu00.op_class::SimdAlu                      0      0.00%     63.58% # Class of executed instruction
system.cpu00.op_class::SimdCmp                      0      0.00%     63.58% # Class of executed instruction
system.cpu00.op_class::SimdCvt                      0      0.00%     63.58% # Class of executed instruction
system.cpu00.op_class::SimdMisc                     0      0.00%     63.58% # Class of executed instruction
system.cpu00.op_class::SimdMult                     0      0.00%     63.58% # Class of executed instruction
system.cpu00.op_class::SimdMultAcc                  0      0.00%     63.58% # Class of executed instruction
system.cpu00.op_class::SimdShift                    0      0.00%     63.58% # Class of executed instruction
system.cpu00.op_class::SimdShiftAcc                 0      0.00%     63.58% # Class of executed instruction
system.cpu00.op_class::SimdSqrt                     0      0.00%     63.58% # Class of executed instruction
system.cpu00.op_class::SimdFloatAdd                 0      0.00%     63.58% # Class of executed instruction
system.cpu00.op_class::SimdFloatAlu                 0      0.00%     63.58% # Class of executed instruction
system.cpu00.op_class::SimdFloatCmp                 0      0.00%     63.58% # Class of executed instruction
system.cpu00.op_class::SimdFloatCvt                 0      0.00%     63.58% # Class of executed instruction
system.cpu00.op_class::SimdFloatDiv                 0      0.00%     63.58% # Class of executed instruction
system.cpu00.op_class::SimdFloatMisc                0      0.00%     63.58% # Class of executed instruction
system.cpu00.op_class::SimdFloatMult                0      0.00%     63.58% # Class of executed instruction
system.cpu00.op_class::SimdFloatMultAcc             0      0.00%     63.58% # Class of executed instruction
system.cpu00.op_class::SimdFloatSqrt                0      0.00%     63.58% # Class of executed instruction
system.cpu00.op_class::SimdAes                      0      0.00%     63.58% # Class of executed instruction
system.cpu00.op_class::SimdAesMix                   0      0.00%     63.58% # Class of executed instruction
system.cpu00.op_class::SimdSha1Hash                 0      0.00%     63.58% # Class of executed instruction
system.cpu00.op_class::SimdSha1Hash2                0      0.00%     63.58% # Class of executed instruction
system.cpu00.op_class::SimdSha256Hash               0      0.00%     63.58% # Class of executed instruction
system.cpu00.op_class::SimdSha256Hash2              0      0.00%     63.58% # Class of executed instruction
system.cpu00.op_class::SimdShaSigma2                0      0.00%     63.58% # Class of executed instruction
system.cpu00.op_class::SimdShaSigma3                0      0.00%     63.58% # Class of executed instruction
system.cpu00.op_class::MemRead                  20576     20.50%     84.08% # Class of executed instruction
system.cpu00.op_class::MemWrite                 15969     15.91%     99.99% # Class of executed instruction
system.cpu00.op_class::FloatMemRead                 0      0.00%     99.99% # Class of executed instruction
system.cpu00.op_class::FloatMemWrite               12      0.01%    100.00% # Class of executed instruction
system.cpu00.op_class::IprAccess                    0      0.00%    100.00% # Class of executed instruction
system.cpu00.op_class::InstPrefetch                 0      0.00%    100.00% # Class of executed instruction
system.cpu00.op_class::total                   100365                       # Class of executed instruction
system.cpu00.pwrStateClkGateDist::samples            1                       # Distribution of time spent in the clock gated state
system.cpu00.pwrStateClkGateDist::mean        2042000                       # Distribution of time spent in the clock gated state
system.cpu00.pwrStateClkGateDist::1000-5e+10            1    100.00%    100.00% # Distribution of time spent in the clock gated state
system.cpu00.pwrStateClkGateDist::min_value      2042000                       # Distribution of time spent in the clock gated state
system.cpu00.pwrStateClkGateDist::max_value      2042000                       # Distribution of time spent in the clock gated state
system.cpu00.pwrStateClkGateDist::total             1                       # Distribution of time spent in the clock gated state
system.cpu00.pwrStateResidencyTicks::ON     762708500                       # Cumulative time (in ticks) in various power states
system.cpu00.pwrStateResidencyTicks::CLK_GATED      2042000                       # Cumulative time (in ticks) in various power states
system.cpu00.workload.numSyscalls                  71                       # Number of system calls
system.cpu01.Branches                             222                       # Number of branches fetched
system.cpu01.committedInsts                      1140                       # Number of instructions committed
system.cpu01.committedOps                        1146                       # Number of ops (including micro ops) committed
system.cpu01.dtb.accesses                           0                       # DTB accesses
system.cpu01.dtb.hits                               0                       # DTB hits
system.cpu01.dtb.misses                             0                       # DTB misses
system.cpu01.dtb.pwrStateResidencyTicks::UNDEFINED    764750500                       # Cumulative time (in ticks) in various power states
system.cpu01.dtb.read_accesses                      0                       # DTB read accesses
system.cpu01.dtb.read_hits                          0                       # DTB read hits
system.cpu01.dtb.read_misses                        0                       # DTB read misses
system.cpu01.dtb.write_accesses                     0                       # DTB write accesses
system.cpu01.dtb.write_hits                         0                       # DTB write hits
system.cpu01.dtb.write_misses                       0                       # DTB write misses
system.cpu01.idle_fraction                   0.979334                       # Percentage of idle cycles
system.cpu01.itb.accesses                           0                       # DTB accesses
system.cpu01.itb.hits                               0                       # DTB hits
system.cpu01.itb.misses                             0                       # DTB misses
system.cpu01.itb.pwrStateResidencyTicks::UNDEFINED    764750500                       # Cumulative time (in ticks) in various power states
system.cpu01.itb.read_accesses                      0                       # DTB read accesses
system.cpu01.itb.read_hits                          0                       # DTB read hits
system.cpu01.itb.read_misses                        0                       # DTB read misses
system.cpu01.itb.write_accesses                     0                       # DTB write accesses
system.cpu01.itb.write_hits                         0                       # DTB write hits
system.cpu01.itb.write_misses                       0                       # DTB write misses
system.cpu01.not_idle_fraction               0.020666                       # Percentage of non-idle cycles
system.cpu01.numCycles                        1529370                       # number of cpu cycles simulated
system.cpu01.numPwrStateTransitions                 2                       # Number of power state transitions
system.cpu01.numWorkItemsCompleted                  0                       # number of work items this cpu completed
system.cpu01.numWorkItemsStarted                    0                       # number of work items this cpu started
system.cpu01.num_busy_cycles             31605.294770                       # Number of busy cycles
system.cpu01.num_conditional_control_insts          117                       # number of instructions that are conditional controls
system.cpu01.num_fp_alu_accesses                   12                       # Number of float alu accesses
system.cpu01.num_fp_insts                          12                       # number of float instructions
system.cpu01.num_fp_register_reads                 12                       # number of times the floating registers were read
system.cpu01.num_fp_register_writes                 0                       # number of times the floating registers were written
system.cpu01.num_func_calls                       105                       # number of times a function call or return occured
system.cpu01.num_idle_cycles             1497764.705230                       # Number of idle cycles
system.cpu01.num_int_alu_accesses                1122                       # Number of integer alu accesses
system.cpu01.num_int_insts                       1122                       # number of integer instructions
system.cpu01.num_int_register_reads              1311                       # number of times the integer registers were read
system.cpu01.num_int_register_writes              787                       # number of times the integer registers were written
system.cpu01.num_load_insts                       259                       # Number of load instructions
system.cpu01.num_mem_refs                         442                       # number of memory refs
system.cpu01.num_store_insts                      183                       # Number of store instructions
system.cpu01.num_vec_alu_accesses                   0                       # Number of vector alu accesses
system.cpu01.num_vec_insts                          0                       # number of vector instructions
system.cpu01.num_vec_register_reads                 0                       # number of times the vector registers were read
system.cpu01.num_vec_register_writes                0                       # number of times the vector registers were written
system.cpu01.op_class::No_OpClass                  10      0.87%      0.87% # Class of executed instruction
system.cpu01.op_class::IntAlu                     693     60.37%     61.24% # Class of executed instruction
system.cpu01.op_class::IntMult                      1      0.09%     61.32% # Class of executed instruction
system.cpu01.op_class::IntDiv                       2      0.17%     61.50% # Class of executed instruction
system.cpu01.op_class::FloatAdd                     0      0.00%     61.50% # Class of executed instruction
system.cpu01.op_class::FloatCmp                     0      0.00%     61.50% # Class of executed instruction
system.cpu01.op_class::FloatCvt                     0      0.00%     61.50% # Class of executed instruction
system.cpu01.op_class::FloatMult                    0      0.00%     61.50% # Class of executed instruction
system.cpu01.op_class::FloatMultAcc                 0      0.00%     61.50% # Class of executed instruction
system.cpu01.op_class::FloatDiv                     0      0.00%     61.50% # Class of executed instruction
system.cpu01.op_class::FloatMisc                    0      0.00%     61.50% # Class of executed instruction
system.cpu01.op_class::FloatSqrt                    0      0.00%     61.50% # Class of executed instruction
system.cpu01.op_class::SimdAdd                      0      0.00%     61.50% # Class of executed instruction
system.cpu01.op_class::SimdAddAcc                   0      0.00%     61.50% # Class of executed instruction
system.cpu01.op_class::SimdAlu                      0      0.00%     61.50% # Class of executed instruction
system.cpu01.op_class::SimdCmp                      0      0.00%     61.50% # Class of executed instruction
system.cpu01.op_class::SimdCvt                      0      0.00%     61.50% # Class of executed instruction
system.cpu01.op_class::SimdMisc                     0      0.00%     61.50% # Class of executed instruction
system.cpu01.op_class::SimdMult                     0      0.00%     61.50% # Class of executed instruction
system.cpu01.op_class::SimdMultAcc                  0      0.00%     61.50% # Class of executed instruction
system.cpu01.op_class::SimdShift                    0      0.00%     61.50% # Class of executed instruction
system.cpu01.op_class::SimdShiftAcc                 0      0.00%     61.50% # Class of executed instruction
system.cpu01.op_class::SimdSqrt                     0      0.00%     61.50% # Class of executed instruction
system.cpu01.op_class::SimdFloatAdd                 0      0.00%     61.50% # Class of executed instruction
system.cpu01.op_class::SimdFloatAlu                 0      0.00%     61.50% # Class of executed instruction
system.cpu01.op_class::SimdFloatCmp                 0      0.00%     61.50% # Class of executed instruction
system.cpu01.op_class::SimdFloatCvt                 0      0.00%     61.50% # Class of executed instruction
system.cpu01.op_class::SimdFloatDiv                 0      0.00%     61.50% # Class of executed instruction
system.cpu01.op_class::SimdFloatMisc                0      0.00%     61.50% # Class of executed instruction
system.cpu01.op_class::SimdFloatMult                0      0.00%     61.50% # Class of executed instruction
system.cpu01.op_class::SimdFloatMultAcc             0      0.00%     61.50% # Class of executed instruction
system.cpu01.op_class::SimdFloatSqrt                0      0.00%     61.50% # Class of executed instruction
system.cpu01.op_class::SimdAes                      0      0.00%     61.50% # Class of executed instruction
system.cpu01.op_class::SimdAesMix                   0      0.00%     61.50% # Class of executed instruction
system.cpu01.op_class::SimdSha1Hash                 0      0.00%     61.50% # Class of executed instruction
system.cpu01.op_class::SimdSha1Hash2                0      0.00%     61.50% # Class of executed instruction
system.cpu01.op_class::SimdSha256Hash               0      0.00%     61.50% # Class of executed instruction
system.cpu01.op_class::SimdSha256Hash2              0      0.00%     61.50% # Class of executed instruction
system.cpu01.op_class::SimdShaSigma2                0      0.00%     61.50% # Class of executed instruction
system.cpu01.op_class::SimdShaSigma3                0      0.00%     61.50% # Class of executed instruction
system.cpu01.op_class::MemRead                    263     22.91%     84.41% # Class of executed instruction
system.cpu01.op_class::MemWrite                   167     14.55%     98.95% # Class of executed instruction
system.cpu01.op_class::FloatMemRead                 0      0.00%     98.95% # Class of executed instruction
system.cpu01.op_class::FloatMemWrite               12      1.05%    100.00% # Class of executed instruction
system.cpu01.op_class::IprAccess                    0      0.00%    100.00% # Class of executed instruction
system.cpu01.op_class::InstPrefetch                 0      0.00%    100.00% # Class of executed instruction
system.cpu01.op_class::total                     1148                       # Class of executed instruction
system.cpu01.pwrStateClkGateDist::samples            1                       # Distribution of time spent in the clock gated state
system.cpu01.pwrStateClkGateDist::mean      169757500                       # Distribution of time spent in the clock gated state
system.cpu01.pwrStateClkGateDist::1000-5e+10            1    100.00%    100.00% # Distribution of time spent in the clock gated state
system.cpu01.pwrStateClkGateDist::min_value    169757500                       # Distribution of time spent in the clock gated state
system.cpu01.pwrStateClkGateDist::max_value    169757500                       # Distribution of time spent in the clock gated state
system.cpu01.pwrStateClkGateDist::total             1                       # Distribution of time spent in the clock gated state
system.cpu01.pwrStateResidencyTicks::ON     594993000                       # Cumulative time (in ticks) in various power states
system.cpu01.pwrStateResidencyTicks::CLK_GATED    169757500                       # Cumulative time (in ticks) in various power states
system.cpu02.Branches                             262                       # Number of branches fetched
system.cpu02.committedInsts                      1355                       # Number of instructions committed
system.cpu02.committedOps                        1361                       # Number of ops (including micro ops) committed
system.cpu02.dtb.accesses                           0                       # DTB accesses
system.cpu02.dtb.hits                               0                       # DTB hits
system.cpu02.dtb.misses                             0                       # DTB misses
system.cpu02.dtb.pwrStateResidencyTicks::UNDEFINED    764750500                       # Cumulative time (in ticks) in various power states
system.cpu02.dtb.read_accesses                      0                       # DTB read accesses
system.cpu02.dtb.read_hits                          0                       # DTB read hits
system.cpu02.dtb.read_misses                        0                       # DTB read misses
system.cpu02.dtb.write_accesses                     0                       # DTB write accesses
system.cpu02.dtb.write_hits                         0                       # DTB write hits
system.cpu02.dtb.write_misses                       0                       # DTB write misses
system.cpu02.idle_fraction                   0.982377                       # Percentage of idle cycles
system.cpu02.itb.accesses                           0                       # DTB accesses
system.cpu02.itb.hits                               0                       # DTB hits
system.cpu02.itb.misses                             0                       # DTB misses
system.cpu02.itb.pwrStateResidencyTicks::UNDEFINED    764750500                       # Cumulative time (in ticks) in various power states
system.cpu02.itb.read_accesses                      0                       # DTB read accesses
system.cpu02.itb.read_hits                          0                       # DTB read hits
system.cpu02.itb.read_misses                        0                       # DTB read misses
system.cpu02.itb.write_accesses                     0                       # DTB write accesses
system.cpu02.itb.write_hits                         0                       # DTB write hits
system.cpu02.itb.write_misses                       0                       # DTB write misses
system.cpu02.not_idle_fraction               0.017623                       # Percentage of non-idle cycles
system.cpu02.numCycles                        1529500                       # number of cpu cycles simulated
system.cpu02.numPwrStateTransitions                 2                       # Number of power state transitions
system.cpu02.numWorkItemsCompleted                  0                       # number of work items this cpu completed
system.cpu02.numWorkItemsStarted                    0                       # number of work items this cpu started
system.cpu02.num_busy_cycles             26953.984342                       # Number of busy cycles
system.cpu02.num_conditional_control_insts          138                       # number of instructions that are conditional controls
system.cpu02.num_fp_alu_accesses                   12                       # Number of float alu accesses
system.cpu02.num_fp_insts                          12                       # number of float instructions
system.cpu02.num_fp_register_reads                 12                       # number of times the floating registers were read
system.cpu02.num_fp_register_writes                 0                       # number of times the floating registers were written
system.cpu02.num_func_calls                       124                       # number of times a function call or return occured
system.cpu02.num_idle_cycles             1502546.015658                       # Number of idle cycles
system.cpu02.num_int_alu_accesses                1333                       # Number of integer alu accesses
system.cpu02.num_int_insts                       1333                       # number of integer instructions
system.cpu02.num_int_register_reads              1552                       # number of times the integer registers were read
system.cpu02.num_int_register_writes              945                       # number of times the integer registers were written
system.cpu02.num_load_insts                       313                       # Number of load instructions
system.cpu02.num_mem_refs                         519                       # number of memory refs
system.cpu02.num_store_insts                      206                       # Number of store instructions
system.cpu02.num_vec_alu_accesses                   0                       # Number of vector alu accesses
system.cpu02.num_vec_insts                          0                       # number of vector instructions
system.cpu02.num_vec_register_reads                 0                       # number of times the vector registers were read
system.cpu02.num_vec_register_writes                0                       # number of times the vector registers were written
system.cpu02.op_class::No_OpClass                  10      0.73%      0.73% # Class of executed instruction
system.cpu02.op_class::IntAlu                     831     60.97%     61.70% # Class of executed instruction
system.cpu02.op_class::IntMult                      1      0.07%     61.78% # Class of executed instruction
system.cpu02.op_class::IntDiv                       2      0.15%     61.92% # Class of executed instruction
system.cpu02.op_class::FloatAdd                     0      0.00%     61.92% # Class of executed instruction
system.cpu02.op_class::FloatCmp                     0      0.00%     61.92% # Class of executed instruction
system.cpu02.op_class::FloatCvt                     0      0.00%     61.92% # Class of executed instruction
system.cpu02.op_class::FloatMult                    0      0.00%     61.92% # Class of executed instruction
system.cpu02.op_class::FloatMultAcc                 0      0.00%     61.92% # Class of executed instruction
system.cpu02.op_class::FloatDiv                     0      0.00%     61.92% # Class of executed instruction
system.cpu02.op_class::FloatMisc                    0      0.00%     61.92% # Class of executed instruction
system.cpu02.op_class::FloatSqrt                    0      0.00%     61.92% # Class of executed instruction
system.cpu02.op_class::SimdAdd                      0      0.00%     61.92% # Class of executed instruction
system.cpu02.op_class::SimdAddAcc                   0      0.00%     61.92% # Class of executed instruction
system.cpu02.op_class::SimdAlu                      0      0.00%     61.92% # Class of executed instruction
system.cpu02.op_class::SimdCmp                      0      0.00%     61.92% # Class of executed instruction
system.cpu02.op_class::SimdCvt                      0      0.00%     61.92% # Class of executed instruction
system.cpu02.op_class::SimdMisc                     0      0.00%     61.92% # Class of executed instruction
system.cpu02.op_class::SimdMult                     0      0.00%     61.92% # Class of executed instruction
system.cpu02.op_class::SimdMultAcc                  0      0.00%     61.92% # Class of executed instruction
system.cpu02.op_class::SimdShift                    0      0.00%     61.92% # Class of executed instruction
system.cpu02.op_class::SimdShiftAcc                 0      0.00%     61.92% # Class of executed instruction
system.cpu02.op_class::SimdSqrt                     0      0.00%     61.92% # Class of executed instruction
system.cpu02.op_class::SimdFloatAdd                 0      0.00%     61.92% # Class of executed instruction
system.cpu02.op_class::SimdFloatAlu                 0      0.00%     61.92% # Class of executed instruction
system.cpu02.op_class::SimdFloatCmp                 0      0.00%     61.92% # Class of executed instruction
system.cpu02.op_class::SimdFloatCvt                 0      0.00%     61.92% # Class of executed instruction
system.cpu02.op_class::SimdFloatDiv                 0      0.00%     61.92% # Class of executed instruction
system.cpu02.op_class::SimdFloatMisc                0      0.00%     61.92% # Class of executed instruction
system.cpu02.op_class::SimdFloatMult                0      0.00%     61.92% # Class of executed instruction
system.cpu02.op_class::SimdFloatMultAcc             0      0.00%     61.92% # Class of executed instruction
system.cpu02.op_class::SimdFloatSqrt                0      0.00%     61.92% # Class of executed instruction
system.cpu02.op_class::SimdAes                      0      0.00%     61.92% # Class of executed instruction
system.cpu02.op_class::SimdAesMix                   0      0.00%     61.92% # Class of executed instruction
system.cpu02.op_class::SimdSha1Hash                 0      0.00%     61.92% # Class of executed instruction
system.cpu02.op_class::SimdSha1Hash2                0      0.00%     61.92% # Class of executed instruction
system.cpu02.op_class::SimdSha256Hash               0      0.00%     61.92% # Class of executed instruction
system.cpu02.op_class::SimdSha256Hash2              0      0.00%     61.92% # Class of executed instruction
system.cpu02.op_class::SimdShaSigma2                0      0.00%     61.92% # Class of executed instruction
system.cpu02.op_class::SimdShaSigma3                0      0.00%     61.92% # Class of executed instruction
system.cpu02.op_class::MemRead                    317     23.26%     85.18% # Class of executed instruction
system.cpu02.op_class::MemWrite                   190     13.94%     99.12% # Class of executed instruction
system.cpu02.op_class::FloatMemRead                 0      0.00%     99.12% # Class of executed instruction
system.cpu02.op_class::FloatMemWrite               12      0.88%    100.00% # Class of executed instruction
system.cpu02.op_class::IprAccess                    0      0.00%    100.00% # Class of executed instruction
system.cpu02.op_class::InstPrefetch                 0      0.00%    100.00% # Class of executed instruction
system.cpu02.op_class::total                     1363                       # Class of executed instruction
system.cpu02.pwrStateClkGateDist::samples            1                       # Distribution of time spent in the clock gated state
system.cpu02.pwrStateClkGateDist::mean      160215500                       # Distribution of time spent in the clock gated state
system.cpu02.pwrStateClkGateDist::1000-5e+10            1    100.00%    100.00% # Distribution of time spent in the clock gated state
system.cpu02.pwrStateClkGateDist::min_value    160215500                       # Distribution of time spent in the clock gated state
system.cpu02.pwrStateClkGateDist::max_value    160215500                       # Distribution of time spent in the clock gated state
system.cpu02.pwrStateClkGateDist::total             1                       # Distribution of time spent in the clock gated state
system.cpu02.pwrStateResidencyTicks::ON     604535000                       # Cumulative time (in ticks) in various power states
system.cpu02.pwrStateResidencyTicks::CLK_GATED    160215500                       # Cumulative time (in ticks) in various power states
system.cpu03.Branches                             220                       # Number of branches fetched
system.cpu03.committedInsts                      1111                       # Number of instructions committed
system.cpu03.committedOps                        1117                       # Number of ops (including micro ops) committed
system.cpu03.dtb.accesses                           0                       # DTB accesses
system.cpu03.dtb.hits                               0                       # DTB hits
system.cpu03.dtb.misses                             0                       # DTB misses
system.cpu03.dtb.pwrStateResidencyTicks::UNDEFINED    764750500                       # Cumulative time (in ticks) in various power states
system.cpu03.dtb.read_accesses                      0                       # DTB read accesses
system.cpu03.dtb.read_hits                          0                       # DTB read hits
system.cpu03.dtb.read_misses                        0                       # DTB read misses
system.cpu03.dtb.write_accesses                     0                       # DTB write accesses
system.cpu03.dtb.write_hits                         0                       # DTB write hits
system.cpu03.dtb.write_misses                       0                       # DTB write misses
system.cpu03.idle_fraction                   0.982296                       # Percentage of idle cycles
system.cpu03.itb.accesses                           0                       # DTB accesses
system.cpu03.itb.hits                               0                       # DTB hits
system.cpu03.itb.misses                             0                       # DTB misses
system.cpu03.itb.pwrStateResidencyTicks::UNDEFINED    764750500                       # Cumulative time (in ticks) in various power states
system.cpu03.itb.read_accesses                      0                       # DTB read accesses
system.cpu03.itb.read_hits                          0                       # DTB read hits
system.cpu03.itb.read_misses                        0                       # DTB read misses
system.cpu03.itb.write_accesses                     0                       # DTB write accesses
system.cpu03.itb.write_hits                         0                       # DTB write hits
system.cpu03.itb.write_misses                       0                       # DTB write misses
system.cpu03.not_idle_fraction               0.017704                       # Percentage of non-idle cycles
system.cpu03.numCycles                        1529385                       # number of cpu cycles simulated
system.cpu03.numPwrStateTransitions                 2                       # Number of power state transitions
system.cpu03.numWorkItemsCompleted                  0                       # number of work items this cpu completed
system.cpu03.numWorkItemsStarted                    0                       # number of work items this cpu started
system.cpu03.num_busy_cycles             27076.948246                       # Number of busy cycles
system.cpu03.num_conditional_control_insts          116                       # number of instructions that are conditional controls
system.cpu03.num_fp_alu_accesses                   12                       # Number of float alu accesses
system.cpu03.num_fp_insts                          12                       # number of float instructions
system.cpu03.num_fp_register_reads                 12                       # number of times the floating registers were read
system.cpu03.num_fp_register_writes                 0                       # number of times the floating registers were written
system.cpu03.num_func_calls                       104                       # number of times a function call or return occured
system.cpu03.num_idle_cycles             1502308.051754                       # Number of idle cycles
system.cpu03.num_int_alu_accesses                1091                       # Number of integer alu accesses
system.cpu03.num_int_insts                       1091                       # number of integer instructions
system.cpu03.num_int_register_reads              1273                       # number of times the integer registers were read
system.cpu03.num_int_register_writes              764                       # number of times the integer registers were written
system.cpu03.num_load_insts                       246                       # Number of load instructions
system.cpu03.num_mem_refs                         424                       # number of memory refs
system.cpu03.num_store_insts                      178                       # Number of store instructions
system.cpu03.num_vec_alu_accesses                   0                       # Number of vector alu accesses
system.cpu03.num_vec_insts                          0                       # number of vector instructions
system.cpu03.num_vec_register_reads                 0                       # number of times the vector registers were read
system.cpu03.num_vec_register_writes                0                       # number of times the vector registers were written
system.cpu03.op_class::No_OpClass                  11      0.98%      0.98% # Class of executed instruction
system.cpu03.op_class::IntAlu                     682     60.89%     61.87% # Class of executed instruction
system.cpu03.op_class::IntMult                      1      0.09%     61.96% # Class of executed instruction
system.cpu03.op_class::IntDiv                       2      0.18%     62.14% # Class of executed instruction
system.cpu03.op_class::FloatAdd                     0      0.00%     62.14% # Class of executed instruction
system.cpu03.op_class::FloatCmp                     0      0.00%     62.14% # Class of executed instruction
system.cpu03.op_class::FloatCvt                     0      0.00%     62.14% # Class of executed instruction
system.cpu03.op_class::FloatMult                    0      0.00%     62.14% # Class of executed instruction
system.cpu03.op_class::FloatMultAcc                 0      0.00%     62.14% # Class of executed instruction
system.cpu03.op_class::FloatDiv                     0      0.00%     62.14% # Class of executed instruction
system.cpu03.op_class::FloatMisc                    0      0.00%     62.14% # Class of executed instruction
system.cpu03.op_class::FloatSqrt                    0      0.00%     62.14% # Class of executed instruction
system.cpu03.op_class::SimdAdd                      0      0.00%     62.14% # Class of executed instruction
system.cpu03.op_class::SimdAddAcc                   0      0.00%     62.14% # Class of executed instruction
system.cpu03.op_class::SimdAlu                      0      0.00%     62.14% # Class of executed instruction
system.cpu03.op_class::SimdCmp                      0      0.00%     62.14% # Class of executed instruction
system.cpu03.op_class::SimdCvt                      0      0.00%     62.14% # Class of executed instruction
system.cpu03.op_class::SimdMisc                     0      0.00%     62.14% # Class of executed instruction
system.cpu03.op_class::SimdMult                     0      0.00%     62.14% # Class of executed instruction
system.cpu03.op_class::SimdMultAcc                  0      0.00%     62.14% # Class of executed instruction
system.cpu03.op_class::SimdShift                    0      0.00%     62.14% # Class of executed instruction
system.cpu03.op_class::SimdShiftAcc                 0      0.00%     62.14% # Class of executed instruction
system.cpu03.op_class::SimdSqrt                     0      0.00%     62.14% # Class of executed instruction
system.cpu03.op_class::SimdFloatAdd                 0      0.00%     62.14% # Class of executed instruction
system.cpu03.op_class::SimdFloatAlu                 0      0.00%     62.14% # Class of executed instruction
system.cpu03.op_class::SimdFloatCmp                 0      0.00%     62.14% # Class of executed instruction
system.cpu03.op_class::SimdFloatCvt                 0      0.00%     62.14% # Class of executed instruction
system.cpu03.op_class::SimdFloatDiv                 0      0.00%     62.14% # Class of executed instruction
system.cpu03.op_class::SimdFloatMisc                0      0.00%     62.14% # Class of executed instruction
system.cpu03.op_class::SimdFloatMult                0      0.00%     62.14% # Class of executed instruction
system.cpu03.op_class::SimdFloatMultAcc             0      0.00%     62.14% # Class of executed instruction
system.cpu03.op_class::SimdFloatSqrt                0      0.00%     62.14% # Class of executed instruction
system.cpu03.op_class::SimdAes                      0      0.00%     62.14% # Class of executed instruction
system.cpu03.op_class::SimdAesMix                   0      0.00%     62.14% # Class of executed instruction
system.cpu03.op_class::SimdSha1Hash                 0      0.00%     62.14% # Class of executed instruction
system.cpu03.op_class::SimdSha1Hash2                0      0.00%     62.14% # Class of executed instruction
system.cpu03.op_class::SimdSha256Hash               0      0.00%     62.14% # Class of executed instruction
system.cpu03.op_class::SimdSha256Hash2              0      0.00%     62.14% # Class of executed instruction
system.cpu03.op_class::SimdShaSigma2                0      0.00%     62.14% # Class of executed instruction
system.cpu03.op_class::SimdShaSigma3                0      0.00%     62.14% # Class of executed instruction
system.cpu03.op_class::MemRead                    250     22.32%     84.46% # Class of executed instruction
system.cpu03.op_class::MemWrite                   162     14.46%     98.93% # Class of executed instruction
system.cpu03.op_class::FloatMemRead                 0      0.00%     98.93% # Class of executed instruction
system.cpu03.op_class::FloatMemWrite               12      1.07%    100.00% # Class of executed instruction
system.cpu03.op_class::IprAccess                    0      0.00%    100.00% # Class of executed instruction
system.cpu03.op_class::InstPrefetch                 0      0.00%    100.00% # Class of executed instruction
system.cpu03.op_class::total                     1120                       # Class of executed instruction
system.cpu03.pwrStateClkGateDist::samples            1                       # Distribution of time spent in the clock gated state
system.cpu03.pwrStateClkGateDist::mean      147966000                       # Distribution of time spent in the clock gated state
system.cpu03.pwrStateClkGateDist::1000-5e+10            1    100.00%    100.00% # Distribution of time spent in the clock gated state
system.cpu03.pwrStateClkGateDist::min_value    147966000                       # Distribution of time spent in the clock gated state
system.cpu03.pwrStateClkGateDist::max_value    147966000                       # Distribution of time spent in the clock gated state
system.cpu03.pwrStateClkGateDist::total             1                       # Distribution of time spent in the clock gated state
system.cpu03.pwrStateResidencyTicks::ON     616784500                       # Cumulative time (in ticks) in various power states
system.cpu03.pwrStateResidencyTicks::CLK_GATED    147966000                       # Cumulative time (in ticks) in various power states
system.cpu04.Branches                             228                       # Number of branches fetched
system.cpu04.committedInsts                      1168                       # Number of instructions committed
system.cpu04.committedOps                        1174                       # Number of ops (including micro ops) committed
system.cpu04.dtb.accesses                           0                       # DTB accesses
system.cpu04.dtb.hits                               0                       # DTB hits
system.cpu04.dtb.misses                             0                       # DTB misses
system.cpu04.dtb.pwrStateResidencyTicks::UNDEFINED    764750500                       # Cumulative time (in ticks) in various power states
system.cpu04.dtb.read_accesses                      0                       # DTB read accesses
system.cpu04.dtb.read_hits                          0                       # DTB read hits
system.cpu04.dtb.read_misses                        0                       # DTB read misses
system.cpu04.dtb.write_accesses                     0                       # DTB write accesses
system.cpu04.dtb.write_hits                         0                       # DTB write hits
system.cpu04.dtb.write_misses                       0                       # DTB write misses
system.cpu04.idle_fraction                   0.981726                       # Percentage of idle cycles
system.cpu04.itb.accesses                           0                       # DTB accesses
system.cpu04.itb.hits                               0                       # DTB hits
system.cpu04.itb.misses                             0                       # DTB misses
system.cpu04.itb.pwrStateResidencyTicks::UNDEFINED    764750500                       # Cumulative time (in ticks) in various power states
system.cpu04.itb.read_accesses                      0                       # DTB read accesses
system.cpu04.itb.read_hits                          0                       # DTB read hits
system.cpu04.itb.read_misses                        0                       # DTB read misses
system.cpu04.itb.write_accesses                     0                       # DTB write accesses
system.cpu04.itb.write_hits                         0                       # DTB write hits
system.cpu04.itb.write_misses                       0                       # DTB write misses
system.cpu04.not_idle_fraction               0.018274                       # Percentage of non-idle cycles
system.cpu04.numCycles                        1529500                       # number of cpu cycles simulated
system.cpu04.numPwrStateTransitions                 2                       # Number of power state transitions
system.cpu04.numWorkItemsCompleted                  0                       # number of work items this cpu completed
system.cpu04.numWorkItemsStarted                    0                       # number of work items this cpu started
system.cpu04.num_busy_cycles             27949.983690                       # Number of busy cycles
system.cpu04.num_conditional_control_insts          117                       # number of instructions that are conditional controls
system.cpu04.num_fp_alu_accesses                   12                       # Number of float alu accesses
system.cpu04.num_fp_insts                          12                       # number of float instructions
system.cpu04.num_fp_register_reads                 12                       # number of times the floating registers were read
system.cpu04.num_fp_register_writes                 0                       # number of times the floating registers were written
system.cpu04.num_func_calls                       111                       # number of times a function call or return occured
system.cpu04.num_idle_cycles             1501550.016310                       # Number of idle cycles
system.cpu04.num_int_alu_accesses                1146                       # Number of integer alu accesses
system.cpu04.num_int_insts                       1146                       # number of integer instructions
system.cpu04.num_int_register_reads              1339                       # number of times the integer registers were read
system.cpu04.num_int_register_writes              805                       # number of times the integer registers were written
system.cpu04.num_load_insts                       265                       # Number of load instructions
system.cpu04.num_mem_refs                         452                       # number of memory refs
system.cpu04.num_store_insts                      187                       # Number of store instructions
system.cpu04.num_vec_alu_accesses                   0                       # Number of vector alu accesses
system.cpu04.num_vec_insts                          0                       # number of vector instructions
system.cpu04.num_vec_register_reads                 0                       # number of times the vector registers were read
system.cpu04.num_vec_register_writes                0                       # number of times the vector registers were written
system.cpu04.op_class::No_OpClass                  10      0.85%      0.85% # Class of executed instruction
system.cpu04.op_class::IntAlu                     711     60.46%     61.31% # Class of executed instruction
system.cpu04.op_class::IntMult                      1      0.09%     61.39% # Class of executed instruction
system.cpu04.op_class::IntDiv                       2      0.17%     61.56% # Class of executed instruction
system.cpu04.op_class::FloatAdd                     0      0.00%     61.56% # Class of executed instruction
system.cpu04.op_class::FloatCmp                     0      0.00%     61.56% # Class of executed instruction
system.cpu04.op_class::FloatCvt                     0      0.00%     61.56% # Class of executed instruction
system.cpu04.op_class::FloatMult                    0      0.00%     61.56% # Class of executed instruction
system.cpu04.op_class::FloatMultAcc                 0      0.00%     61.56% # Class of executed instruction
system.cpu04.op_class::FloatDiv                     0      0.00%     61.56% # Class of executed instruction
system.cpu04.op_class::FloatMisc                    0      0.00%     61.56% # Class of executed instruction
system.cpu04.op_class::FloatSqrt                    0      0.00%     61.56% # Class of executed instruction
system.cpu04.op_class::SimdAdd                      0      0.00%     61.56% # Class of executed instruction
system.cpu04.op_class::SimdAddAcc                   0      0.00%     61.56% # Class of executed instruction
system.cpu04.op_class::SimdAlu                      0      0.00%     61.56% # Class of executed instruction
system.cpu04.op_class::SimdCmp                      0      0.00%     61.56% # Class of executed instruction
system.cpu04.op_class::SimdCvt                      0      0.00%     61.56% # Class of executed instruction
system.cpu04.op_class::SimdMisc                     0      0.00%     61.56% # Class of executed instruction
system.cpu04.op_class::SimdMult                     0      0.00%     61.56% # Class of executed instruction
system.cpu04.op_class::SimdMultAcc                  0      0.00%     61.56% # Class of executed instruction
system.cpu04.op_class::SimdShift                    0      0.00%     61.56% # Class of executed instruction
system.cpu04.op_class::SimdShiftAcc                 0      0.00%     61.56% # Class of executed instruction
system.cpu04.op_class::SimdSqrt                     0      0.00%     61.56% # Class of executed instruction
system.cpu04.op_class::SimdFloatAdd                 0      0.00%     61.56% # Class of executed instruction
system.cpu04.op_class::SimdFloatAlu                 0      0.00%     61.56% # Class of executed instruction
system.cpu04.op_class::SimdFloatCmp                 0      0.00%     61.56% # Class of executed instruction
system.cpu04.op_class::SimdFloatCvt                 0      0.00%     61.56% # Class of executed instruction
system.cpu04.op_class::SimdFloatDiv                 0      0.00%     61.56% # Class of executed instruction
system.cpu04.op_class::SimdFloatMisc                0      0.00%     61.56% # Class of executed instruction
system.cpu04.op_class::SimdFloatMult                0      0.00%     61.56% # Class of executed instruction
system.cpu04.op_class::SimdFloatMultAcc             0      0.00%     61.56% # Class of executed instruction
system.cpu04.op_class::SimdFloatSqrt                0      0.00%     61.56% # Class of executed instruction
system.cpu04.op_class::SimdAes                      0      0.00%     61.56% # Class of executed instruction
system.cpu04.op_class::SimdAesMix                   0      0.00%     61.56% # Class of executed instruction
system.cpu04.op_class::SimdSha1Hash                 0      0.00%     61.56% # Class of executed instruction
system.cpu04.op_class::SimdSha1Hash2                0      0.00%     61.56% # Class of executed instruction
system.cpu04.op_class::SimdSha256Hash               0      0.00%     61.56% # Class of executed instruction
system.cpu04.op_class::SimdSha256Hash2              0      0.00%     61.56% # Class of executed instruction
system.cpu04.op_class::SimdShaSigma2                0      0.00%     61.56% # Class of executed instruction
system.cpu04.op_class::SimdShaSigma3                0      0.00%     61.56% # Class of executed instruction
system.cpu04.op_class::MemRead                    269     22.87%     84.44% # Class of executed instruction
system.cpu04.op_class::MemWrite                   171     14.54%     98.98% # Class of executed instruction
system.cpu04.op_class::FloatMemRead                 0      0.00%     98.98% # Class of executed instruction
system.cpu04.op_class::FloatMemWrite               12      1.02%    100.00% # Class of executed instruction
system.cpu04.op_class::IprAccess                    0      0.00%    100.00% # Class of executed instruction
system.cpu04.op_class::InstPrefetch                 0      0.00%    100.00% # Class of executed instruction
system.cpu04.op_class::total                     1176                       # Class of executed instruction
system.cpu04.pwrStateClkGateDist::samples            1                       # Distribution of time spent in the clock gated state
system.cpu04.pwrStateClkGateDist::mean      135587000                       # Distribution of time spent in the clock gated state
system.cpu04.pwrStateClkGateDist::1000-5e+10            1    100.00%    100.00% # Distribution of time spent in the clock gated state
system.cpu04.pwrStateClkGateDist::min_value    135587000                       # Distribution of time spent in the clock gated state
system.cpu04.pwrStateClkGateDist::max_value    135587000                       # Distribution of time spent in the clock gated state
system.cpu04.pwrStateClkGateDist::total             1                       # Distribution of time spent in the clock gated state
system.cpu04.pwrStateResidencyTicks::ON     629163500                       # Cumulative time (in ticks) in various power states
system.cpu04.pwrStateResidencyTicks::CLK_GATED    135587000                       # Cumulative time (in ticks) in various power states
system.cpu05.Branches                             266                       # Number of branches fetched
system.cpu05.committedInsts                      1376                       # Number of instructions committed
system.cpu05.committedOps                        1382                       # Number of ops (including micro ops) committed
system.cpu05.dtb.accesses                           0                       # DTB accesses
system.cpu05.dtb.hits                               0                       # DTB hits
system.cpu05.dtb.misses                             0                       # DTB misses
system.cpu05.dtb.pwrStateResidencyTicks::UNDEFINED    764750500                       # Cumulative time (in ticks) in various power states
system.cpu05.dtb.read_accesses                      0                       # DTB read accesses
system.cpu05.dtb.read_hits                          0                       # DTB read hits
system.cpu05.dtb.read_misses                        0                       # DTB read misses
system.cpu05.dtb.write_accesses                     0                       # DTB write accesses
system.cpu05.dtb.write_hits                         0                       # DTB write hits
system.cpu05.dtb.write_misses                       0                       # DTB write misses
system.cpu05.idle_fraction                   0.981336                       # Percentage of idle cycles
system.cpu05.itb.accesses                           0                       # DTB accesses
system.cpu05.itb.hits                               0                       # DTB hits
system.cpu05.itb.misses                             0                       # DTB misses
system.cpu05.itb.pwrStateResidencyTicks::UNDEFINED    764750500                       # Cumulative time (in ticks) in various power states
system.cpu05.itb.read_accesses                      0                       # DTB read accesses
system.cpu05.itb.read_hits                          0                       # DTB read hits
system.cpu05.itb.read_misses                        0                       # DTB read misses
system.cpu05.itb.write_accesses                     0                       # DTB write accesses
system.cpu05.itb.write_hits                         0                       # DTB write hits
system.cpu05.itb.write_misses                       0                       # DTB write misses
system.cpu05.not_idle_fraction               0.018664                       # Percentage of non-idle cycles
system.cpu05.numCycles                        1529500                       # number of cpu cycles simulated
system.cpu05.numPwrStateTransitions                 2                       # Number of power state transitions
system.cpu05.numWorkItemsCompleted                  0                       # number of work items this cpu completed
system.cpu05.numWorkItemsStarted                    0                       # number of work items this cpu started
system.cpu05.num_busy_cycles             28546.983298                       # Number of busy cycles
system.cpu05.num_conditional_control_insts          138                       # number of instructions that are conditional controls
system.cpu05.num_fp_alu_accesses                   12                       # Number of float alu accesses
system.cpu05.num_fp_insts                          12                       # number of float instructions
system.cpu05.num_fp_register_reads                 12                       # number of times the floating registers were read
system.cpu05.num_fp_register_writes                 0                       # number of times the floating registers were written
system.cpu05.num_func_calls                       128                       # number of times a function call or return occured
system.cpu05.num_idle_cycles             1500953.016702                       # Number of idle cycles
system.cpu05.num_int_alu_accesses                1352                       # Number of integer alu accesses
system.cpu05.num_int_insts                       1352                       # number of integer instructions
system.cpu05.num_int_register_reads              1575                       # number of times the integer registers were read
system.cpu05.num_int_register_writes              960                       # number of times the integer registers were written
system.cpu05.num_load_insts                       317                       # Number of load instructions
system.cpu05.num_mem_refs                         526                       # number of memory refs
system.cpu05.num_store_insts                      209                       # Number of store instructions
system.cpu05.num_vec_alu_accesses                   0                       # Number of vector alu accesses
system.cpu05.num_vec_insts                          0                       # number of vector instructions
system.cpu05.num_vec_register_reads                 0                       # number of times the vector registers were read
system.cpu05.num_vec_register_writes                0                       # number of times the vector registers were written
system.cpu05.op_class::No_OpClass                  10      0.72%      0.72% # Class of executed instruction
system.cpu05.op_class::IntAlu                     845     61.05%     61.78% # Class of executed instruction
system.cpu05.op_class::IntMult                      1      0.07%     61.85% # Class of executed instruction
system.cpu05.op_class::IntDiv                       2      0.14%     61.99% # Class of executed instruction
system.cpu05.op_class::FloatAdd                     0      0.00%     61.99% # Class of executed instruction
system.cpu05.op_class::FloatCmp                     0      0.00%     61.99% # Class of executed instruction
system.cpu05.op_class::FloatCvt                     0      0.00%     61.99% # Class of executed instruction
system.cpu05.op_class::FloatMult                    0      0.00%     61.99% # Class of executed instruction
system.cpu05.op_class::FloatMultAcc                 0      0.00%     61.99% # Class of executed instruction
system.cpu05.op_class::FloatDiv                     0      0.00%     61.99% # Class of executed instruction
system.cpu05.op_class::FloatMisc                    0      0.00%     61.99% # Class of executed instruction
system.cpu05.op_class::FloatSqrt                    0      0.00%     61.99% # Class of executed instruction
system.cpu05.op_class::SimdAdd                      0      0.00%     61.99% # Class of executed instruction
system.cpu05.op_class::SimdAddAcc                   0      0.00%     61.99% # Class of executed instruction
system.cpu05.op_class::SimdAlu                      0      0.00%     61.99% # Class of executed instruction
system.cpu05.op_class::SimdCmp                      0      0.00%     61.99% # Class of executed instruction
system.cpu05.op_class::SimdCvt                      0      0.00%     61.99% # Class of executed instruction
system.cpu05.op_class::SimdMisc                     0      0.00%     61.99% # Class of executed instruction
system.cpu05.op_class::SimdMult                     0      0.00%     61.99% # Class of executed instruction
system.cpu05.op_class::SimdMultAcc                  0      0.00%     61.99% # Class of executed instruction
system.cpu05.op_class::SimdShift                    0      0.00%     61.99% # Class of executed instruction
system.cpu05.op_class::SimdShiftAcc                 0      0.00%     61.99% # Class of executed instruction
system.cpu05.op_class::SimdSqrt                     0      0.00%     61.99% # Class of executed instruction
system.cpu05.op_class::SimdFloatAdd                 0      0.00%     61.99% # Class of executed instruction
system.cpu05.op_class::SimdFloatAlu                 0      0.00%     61.99% # Class of executed instruction
system.cpu05.op_class::SimdFloatCmp                 0      0.00%     61.99% # Class of executed instruction
system.cpu05.op_class::SimdFloatCvt                 0      0.00%     61.99% # Class of executed instruction
system.cpu05.op_class::SimdFloatDiv                 0      0.00%     61.99% # Class of executed instruction
system.cpu05.op_class::SimdFloatMisc                0      0.00%     61.99% # Class of executed instruction
system.cpu05.op_class::SimdFloatMult                0      0.00%     61.99% # Class of executed instruction
system.cpu05.op_class::SimdFloatMultAcc             0      0.00%     61.99% # Class of executed instruction
system.cpu05.op_class::SimdFloatSqrt                0      0.00%     61.99% # Class of executed instruction
system.cpu05.op_class::SimdAes                      0      0.00%     61.99% # Class of executed instruction
system.cpu05.op_class::SimdAesMix                   0      0.00%     61.99% # Class of executed instruction
system.cpu05.op_class::SimdSha1Hash                 0      0.00%     61.99% # Class of executed instruction
system.cpu05.op_class::SimdSha1Hash2                0      0.00%     61.99% # Class of executed instruction
system.cpu05.op_class::SimdSha256Hash               0      0.00%     61.99% # Class of executed instruction
system.cpu05.op_class::SimdSha256Hash2              0      0.00%     61.99% # Class of executed instruction
system.cpu05.op_class::SimdShaSigma2                0      0.00%     61.99% # Class of executed instruction
system.cpu05.op_class::SimdShaSigma3                0      0.00%     61.99% # Class of executed instruction
system.cpu05.op_class::MemRead                    321     23.19%     85.19% # Class of executed instruction
system.cpu05.op_class::MemWrite                   193     13.95%     99.13% # Class of executed instruction
system.cpu05.op_class::FloatMemRead                 0      0.00%     99.13% # Class of executed instruction
system.cpu05.op_class::FloatMemWrite               12      0.87%    100.00% # Class of executed instruction
system.cpu05.op_class::IprAccess                    0      0.00%    100.00% # Class of executed instruction
system.cpu05.op_class::InstPrefetch                 0      0.00%    100.00% # Class of executed instruction
system.cpu05.op_class::total                     1384                       # Class of executed instruction
system.cpu05.pwrStateClkGateDist::samples            1                       # Distribution of time spent in the clock gated state
system.cpu05.pwrStateClkGateDist::mean      123651000                       # Distribution of time spent in the clock gated state
system.cpu05.pwrStateClkGateDist::1000-5e+10            1    100.00%    100.00% # Distribution of time spent in the clock gated state
system.cpu05.pwrStateClkGateDist::min_value    123651000                       # Distribution of time spent in the clock gated state
system.cpu05.pwrStateClkGateDist::max_value    123651000                       # Distribution of time spent in the clock gated state
system.cpu05.pwrStateClkGateDist::total             1                       # Distribution of time spent in the clock gated state
system.cpu05.pwrStateResidencyTicks::ON     641099500                       # Cumulative time (in ticks) in various power states
system.cpu05.pwrStateResidencyTicks::CLK_GATED    123651000                       # Cumulative time (in ticks) in various power states
system.cpu06.Branches                             246                       # Number of branches fetched
system.cpu06.committedInsts                      1260                       # Number of instructions committed
system.cpu06.committedOps                        1266                       # Number of ops (including micro ops) committed
system.cpu06.dtb.accesses                           0                       # DTB accesses
system.cpu06.dtb.hits                               0                       # DTB hits
system.cpu06.dtb.misses                             0                       # DTB misses
system.cpu06.dtb.pwrStateResidencyTicks::UNDEFINED    764750500                       # Cumulative time (in ticks) in various power states
system.cpu06.dtb.read_accesses                      0                       # DTB read accesses
system.cpu06.dtb.read_hits                          0                       # DTB read hits
system.cpu06.dtb.read_misses                        0                       # DTB read misses
system.cpu06.dtb.write_accesses                     0                       # DTB write accesses
system.cpu06.dtb.write_hits                         0                       # DTB write hits
system.cpu06.dtb.write_misses                       0                       # DTB write misses
system.cpu06.idle_fraction                   0.982027                       # Percentage of idle cycles
system.cpu06.itb.accesses                           0                       # DTB accesses
system.cpu06.itb.hits                               0                       # DTB hits
system.cpu06.itb.misses                             0                       # DTB misses
system.cpu06.itb.pwrStateResidencyTicks::UNDEFINED    764750500                       # Cumulative time (in ticks) in various power states
system.cpu06.itb.read_accesses                      0                       # DTB read accesses
system.cpu06.itb.read_hits                          0                       # DTB read hits
system.cpu06.itb.read_misses                        0                       # DTB read misses
system.cpu06.itb.write_accesses                     0                       # DTB write accesses
system.cpu06.itb.write_hits                         0                       # DTB write hits
system.cpu06.itb.write_misses                       0                       # DTB write misses
system.cpu06.not_idle_fraction               0.017973                       # Percentage of non-idle cycles
system.cpu06.numCycles                        1529410                       # number of cpu cycles simulated
system.cpu06.numPwrStateTransitions                 2                       # Number of power state transitions
system.cpu06.numWorkItemsCompleted                  0                       # number of work items this cpu completed
system.cpu06.numWorkItemsStarted                    0                       # number of work items this cpu started
system.cpu06.num_busy_cycles             27487.366464                       # Number of busy cycles
system.cpu06.num_conditional_control_insts          126                       # number of instructions that are conditional controls
system.cpu06.num_fp_alu_accesses                   12                       # Number of float alu accesses
system.cpu06.num_fp_insts                          12                       # number of float instructions
system.cpu06.num_fp_register_reads                 12                       # number of times the floating registers were read
system.cpu06.num_fp_register_writes                 0                       # number of times the floating registers were written
system.cpu06.num_func_calls                       120                       # number of times a function call or return occured
system.cpu06.num_idle_cycles             1501922.633536                       # Number of idle cycles
system.cpu06.num_int_alu_accesses                1236                       # Number of integer alu accesses
system.cpu06.num_int_insts                       1236                       # number of integer instructions
system.cpu06.num_int_register_reads              1443                       # number of times the integer registers were read
system.cpu06.num_int_register_writes              874                       # number of times the integer registers were written
system.cpu06.num_load_insts                       289                       # Number of load instructions
system.cpu06.num_mem_refs                         484                       # number of memory refs
system.cpu06.num_store_insts                      195                       # Number of store instructions
system.cpu06.num_vec_alu_accesses                   0                       # Number of vector alu accesses
system.cpu06.num_vec_insts                          0                       # number of vector instructions
system.cpu06.num_vec_register_reads                 0                       # number of times the vector registers were read
system.cpu06.num_vec_register_writes                0                       # number of times the vector registers were written
system.cpu06.op_class::No_OpClass                  10      0.79%      0.79% # Class of executed instruction
system.cpu06.op_class::IntAlu                     771     60.80%     61.59% # Class of executed instruction
system.cpu06.op_class::IntMult                      1      0.08%     61.67% # Class of executed instruction
system.cpu06.op_class::IntDiv                       2      0.16%     61.83% # Class of executed instruction
system.cpu06.op_class::FloatAdd                     0      0.00%     61.83% # Class of executed instruction
system.cpu06.op_class::FloatCmp                     0      0.00%     61.83% # Class of executed instruction
system.cpu06.op_class::FloatCvt                     0      0.00%     61.83% # Class of executed instruction
system.cpu06.op_class::FloatMult                    0      0.00%     61.83% # Class of executed instruction
system.cpu06.op_class::FloatMultAcc                 0      0.00%     61.83% # Class of executed instruction
system.cpu06.op_class::FloatDiv                     0      0.00%     61.83% # Class of executed instruction
system.cpu06.op_class::FloatMisc                    0      0.00%     61.83% # Class of executed instruction
system.cpu06.op_class::FloatSqrt                    0      0.00%     61.83% # Class of executed instruction
system.cpu06.op_class::SimdAdd                      0      0.00%     61.83% # Class of executed instruction
system.cpu06.op_class::SimdAddAcc                   0      0.00%     61.83% # Class of executed instruction
system.cpu06.op_class::SimdAlu                      0      0.00%     61.83% # Class of executed instruction
system.cpu06.op_class::SimdCmp                      0      0.00%     61.83% # Class of executed instruction
system.cpu06.op_class::SimdCvt                      0      0.00%     61.83% # Class of executed instruction
system.cpu06.op_class::SimdMisc                     0      0.00%     61.83% # Class of executed instruction
system.cpu06.op_class::SimdMult                     0      0.00%     61.83% # Class of executed instruction
system.cpu06.op_class::SimdMultAcc                  0      0.00%     61.83% # Class of executed instruction
system.cpu06.op_class::SimdShift                    0      0.00%     61.83% # Class of executed instruction
system.cpu06.op_class::SimdShiftAcc                 0      0.00%     61.83% # Class of executed instruction
system.cpu06.op_class::SimdSqrt                     0      0.00%     61.83% # Class of executed instruction
system.cpu06.op_class::SimdFloatAdd                 0      0.00%     61.83% # Class of executed instruction
system.cpu06.op_class::SimdFloatAlu                 0      0.00%     61.83% # Class of executed instruction
system.cpu06.op_class::SimdFloatCmp                 0      0.00%     61.83% # Class of executed instruction
system.cpu06.op_class::SimdFloatCvt                 0      0.00%     61.83% # Class of executed instruction
system.cpu06.op_class::SimdFloatDiv                 0      0.00%     61.83% # Class of executed instruction
system.cpu06.op_class::SimdFloatMisc                0      0.00%     61.83% # Class of executed instruction
system.cpu06.op_class::SimdFloatMult                0      0.00%     61.83% # Class of executed instruction
system.cpu06.op_class::SimdFloatMultAcc             0      0.00%     61.83% # Class of executed instruction
system.cpu06.op_class::SimdFloatSqrt                0      0.00%     61.83% # Class of executed instruction
system.cpu06.op_class::SimdAes                      0      0.00%     61.83% # Class of executed instruction
system.cpu06.op_class::SimdAesMix                   0      0.00%     61.83% # Class of executed instruction
system.cpu06.op_class::SimdSha1Hash                 0      0.00%     61.83% # Class of executed instruction
system.cpu06.op_class::SimdSha1Hash2                0      0.00%     61.83% # Class of executed instruction
system.cpu06.op_class::SimdSha256Hash               0      0.00%     61.83% # Class of executed instruction
system.cpu06.op_class::SimdSha256Hash2              0      0.00%     61.83% # Class of executed instruction
system.cpu06.op_class::SimdShaSigma2                0      0.00%     61.83% # Class of executed instruction
system.cpu06.op_class::SimdShaSigma3                0      0.00%     61.83% # Class of executed instruction
system.cpu06.op_class::MemRead                    293     23.11%     84.94% # Class of executed instruction
system.cpu06.op_class::MemWrite                   179     14.12%     99.05% # Class of executed instruction
system.cpu06.op_class::FloatMemRead                 0      0.00%     99.05% # Class of executed instruction
system.cpu06.op_class::FloatMemWrite               12      0.95%    100.00% # Class of executed instruction
system.cpu06.op_class::IprAccess                    0      0.00%    100.00% # Class of executed instruction
system.cpu06.op_class::InstPrefetch                 0      0.00%    100.00% # Class of executed instruction
system.cpu06.op_class::total                     1268                       # Class of executed instruction
system.cpu06.pwrStateClkGateDist::samples            1                       # Distribution of time spent in the clock gated state
system.cpu06.pwrStateClkGateDist::mean      111823000                       # Distribution of time spent in the clock gated state
system.cpu06.pwrStateClkGateDist::1000-5e+10            1    100.00%    100.00% # Distribution of time spent in the clock gated state
system.cpu06.pwrStateClkGateDist::min_value    111823000                       # Distribution of time spent in the clock gated state
[...]
system.ruby.network.int_links39.credit_link.pwrStateResidencyTicks::UNDEFINED    764750500                       # Cumulative time (in ticks) in various power states
system.ruby.network.int_links39.network_link.pwrStateResidencyTicks::UNDEFINED    764750500                       # Cumulative time (in ticks) in various power states
system.ruby.network.int_links40.credit_link.pwrStateResidencyTicks::UNDEFINED    764750500                       # Cumulative time (in ticks) in various power states
system.ruby.network.int_links40.network_link.pwrStateResidencyTicks::UNDEFINED    764750500                       # Cumulative time (in ticks) in various power states
system.ruby.network.int_links41.credit_link.pwrStateResidencyTicks::UNDEFINED    764750500                       # Cumulative time (in ticks) in various power states
system.ruby.network.int_links41.network_link.pwrStateResidencyTicks::UNDEFINED    764750500                       # Cumulative time (in ticks) in various power states
system.ruby.network.int_links42.credit_link.pwrStateResidencyTicks::UNDEFINED    764750500                       # Cumulative time (in ticks) in various power states
system.ruby.network.int_links42.network_link.pwrStateResidencyTicks::UNDEFINED    764750500                       # Cumulative time (in ticks) in various power states
system.ruby.network.int_links43.credit_link.pwrStateResidencyTicks::UNDEFINED    764750500                       # Cumulative time (in ticks) in various power states
system.ruby.network.int_links43.network_link.pwrStateResidencyTicks::UNDEFINED    764750500                       # Cumulative time (in ticks) in various power states
system.ruby.network.int_links44.credit_link.pwrStateResidencyTicks::UNDEFINED    764750500                       # Cumulative time (in ticks) in various power states
system.ruby.network.int_links44.network_link.pwrStateResidencyTicks::UNDEFINED    764750500                       # Cumulative time (in ticks) in various power states
system.ruby.network.int_links45.credit_link.pwrStateResidencyTicks::UNDEFINED    764750500                       # Cumulative time (in ticks) in various power states
system.ruby.network.int_links45.network_link.pwrStateResidencyTicks::UNDEFINED    764750500                       # Cumulative time (in ticks) in various power states
system.ruby.network.int_links46.credit_link.pwrStateResidencyTicks::UNDEFINED    764750500                       # Cumulative time (in ticks) in various power states
system.ruby.network.int_links46.network_link.pwrStateResidencyTicks::UNDEFINED    764750500                       # Cumulative time (in ticks) in various power states
system.ruby.network.int_links47.credit_link.pwrStateResidencyTicks::UNDEFINED    764750500                       # Cumulative time (in ticks) in various power states
system.ruby.network.int_links47.network_link.pwrStateResidencyTicks::UNDEFINED    764750500                       # Cumulative time (in ticks) in various power states
system.ruby.network.netifs00.pwrStateResidencyTicks::UNDEFINED    764750500                       # Cumulative time (in ticks) in various power states
system.ruby.network.netifs01.pwrStateResidencyTicks::UNDEFINED    764750500                       # Cumulative time (in ticks) in various power states
system.ruby.network.netifs02.pwrStateResidencyTicks::UNDEFINED    764750500                       # Cumulative time (in ticks) in various power states
system.ruby.network.netifs03.pwrStateResidencyTicks::UNDEFINED    764750500                       # Cumulative time (in ticks) in various power states
system.ruby.network.netifs04.pwrStateResidencyTicks::UNDEFINED    764750500                       # Cumulative time (in ticks) in various power states
system.ruby.network.netifs05.pwrStateResidencyTicks::UNDEFINED    764750500                       # Cumulative time (in ticks) in various power states
system.ruby.network.netifs06.pwrStateResidencyTicks::UNDEFINED    764750500                       # Cumulative time (in ticks) in various power states
system.ruby.network.netifs07.pwrStateResidencyTicks::UNDEFINED    764750500                       # Cumulative time (in ticks) in various power states
system.ruby.network.netifs08.pwrStateResidencyTicks::UNDEFINED    764750500                       # Cumulative time (in ticks) in various power states
system.ruby.network.netifs09.pwrStateResidencyTicks::UNDEFINED    764750500                       # Cumulative time (in ticks) in various power states
system.ruby.network.netifs10.pwrStateResidencyTicks::UNDEFINED    764750500                       # Cumulative time (in ticks) in various power states
system.ruby.network.netifs11.pwrStateResidencyTicks::UNDEFINED    764750500                       # Cumulative time (in ticks) in various power states
system.ruby.network.netifs12.pwrStateResidencyTicks::UNDEFINED    764750500                       # Cumulative time (in ticks) in various power states
system.ruby.network.netifs13.pwrStateResidencyTicks::UNDEFINED    764750500                       # Cumulative time (in ticks) in various power states
system.ruby.network.netifs14.pwrStateResidencyTicks::UNDEFINED    764750500                       # Cumulative time (in ticks) in various power states
system.ruby.network.netifs15.pwrStateResidencyTicks::UNDEFINED    764750500                       # Cumulative time (in ticks) in various power states
system.ruby.network.netifs16.pwrStateResidencyTicks::UNDEFINED    764750500                       # Cumulative time (in ticks) in various power states
system.ruby.network.netifs17.pwrStateResidencyTicks::UNDEFINED    764750500                       # Cumulative time (in ticks) in various power states
system.ruby.network.netifs18.pwrStateResidencyTicks::UNDEFINED    764750500                       # Cumulative time (in ticks) in various power states
system.ruby.network.netifs19.pwrStateResidencyTicks::UNDEFINED    764750500                       # Cumulative time (in ticks) in various power states
system.ruby.network.netifs20.pwrStateResidencyTicks::UNDEFINED    764750500                       # Cumulative time (in ticks) in various power states
system.ruby.network.netifs21.pwrStateResidencyTicks::UNDEFINED    764750500                       # Cumulative time (in ticks) in various power states
system.ruby.network.netifs22.pwrStateResidencyTicks::UNDEFINED    764750500                       # Cumulative time (in ticks) in various power states
system.ruby.network.netifs23.pwrStateResidencyTicks::UNDEFINED    764750500                       # Cumulative time (in ticks) in various power states
system.ruby.network.netifs24.pwrStateResidencyTicks::UNDEFINED    764750500                       # Cumulative time (in ticks) in various power states
system.ruby.network.netifs25.pwrStateResidencyTicks::UNDEFINED    764750500                       # Cumulative time (in ticks) in various power states
system.ruby.network.netifs26.pwrStateResidencyTicks::UNDEFINED    764750500                       # Cumulative time (in ticks) in various power states
system.ruby.network.netifs27.pwrStateResidencyTicks::UNDEFINED    764750500                       # Cumulative time (in ticks) in various power states
system.ruby.network.netifs28.pwrStateResidencyTicks::UNDEFINED    764750500                       # Cumulative time (in ticks) in various power states
system.ruby.network.netifs29.pwrStateResidencyTicks::UNDEFINED    764750500                       # Cumulative time (in ticks) in various power states
system.ruby.network.netifs30.pwrStateResidencyTicks::UNDEFINED    764750500                       # Cumulative time (in ticks) in various power states
system.ruby.network.netifs31.pwrStateResidencyTicks::UNDEFINED    764750500                       # Cumulative time (in ticks) in various power states
system.ruby.network.netifs32.pwrStateResidencyTicks::UNDEFINED    764750500                       # Cumulative time (in ticks) in various power states
system.ruby.network.netifs33.pwrStateResidencyTicks::UNDEFINED    764750500                       # Cumulative time (in ticks) in various power states
system.ruby.network.netifs34.pwrStateResidencyTicks::UNDEFINED    764750500                       # Cumulative time (in ticks) in various power states
system.ruby.network.netifs35.pwrStateResidencyTicks::UNDEFINED    764750500                       # Cumulative time (in ticks) in various power states
system.ruby.network.packet_network_latency |      606677                       |      951982                       |      229644                      
system.ruby.network.packet_queueing_latency |       48632                       |       46907                       |       10251                      
system.ruby.network.packets_injected     |       21599     33.91%     33.91% |       32425     50.90%     84.81% |        9676     15.19%    100.00%
system.ruby.network.packets_injected::total        63700                      
system.ruby.network.packets_received     |       21598     33.92%     33.92% |       32407     50.89%     84.81% |        9671     15.19%    100.00%
system.ruby.network.packets_received::total        63676                      
system.ruby.network.pwrStateResidencyTicks::UNDEFINED    764750500                       # Cumulative time (in ticks) in various power states
system.ruby.network.routers00.buffer_reads       102161                      
system.ruby.network.routers00.buffer_writes       102161                      
system.ruby.network.routers00.crossbar_activity       102161                      
system.ruby.network.routers00.pwrStateResidencyTicks::UNDEFINED    764750500                       # Cumulative time (in ticks) in various power states
system.ruby.network.routers00.sw_input_arbiter_activity       102452                      
system.ruby.network.routers00.sw_output_arbiter_activity       102161                      
system.ruby.network.routers01.buffer_reads        48912                      
system.ruby.network.routers01.buffer_writes        48912                      
system.ruby.network.routers01.crossbar_activity        48912                      
system.ruby.network.routers01.pwrStateResidencyTicks::UNDEFINED    764750500                       # Cumulative time (in ticks) in various power states
system.ruby.network.routers01.sw_input_arbiter_activity        49013                      
system.ruby.network.routers01.sw_output_arbiter_activity        48912                      
system.ruby.network.routers02.buffer_reads        35317                      
system.ruby.network.routers02.buffer_writes        35317                      
system.ruby.network.routers02.crossbar_activity        35317                      
system.ruby.network.routers02.pwrStateResidencyTicks::UNDEFINED    764750500                       # Cumulative time (in ticks) in various power states
system.ruby.network.routers02.sw_input_arbiter_activity        35403                      
system.ruby.network.routers02.sw_output_arbiter_activity        35317                      
system.ruby.network.routers03.buffer_reads        26507                      
system.ruby.network.routers03.buffer_writes        26507                      
system.ruby.network.routers03.crossbar_activity        26502                      
system.ruby.network.routers03.pwrStateResidencyTicks::UNDEFINED    764750500                       # Cumulative time (in ticks) in various power states
system.ruby.network.routers03.sw_input_arbiter_activity        26573                      
system.ruby.network.routers03.sw_output_arbiter_activity        26502                      
system.ruby.network.routers04.buffer_reads        59286                      
system.ruby.network.routers04.buffer_writes        59286                      
system.ruby.network.routers04.crossbar_activity        59284                      
system.ruby.network.routers04.pwrStateResidencyTicks::UNDEFINED    764750500                       # Cumulative time (in ticks) in various power states
system.ruby.network.routers04.sw_input_arbiter_activity        59549                      
system.ruby.network.routers04.sw_output_arbiter_activity        59284                      
system.ruby.network.routers05.buffer_reads        24731                      
system.ruby.network.routers05.buffer_writes        24731                      
system.ruby.network.routers05.crossbar_activity        24730                      
system.ruby.network.routers05.pwrStateResidencyTicks::UNDEFINED    764750500                       # Cumulative time (in ticks) in various power states
system.ruby.network.routers05.sw_input_arbiter_activity        24750                      
system.ruby.network.routers05.sw_output_arbiter_activity        24730                      
system.ruby.network.routers06.buffer_reads        21002                      
system.ruby.network.routers06.buffer_writes        21002                      
system.ruby.network.routers06.crossbar_activity        21000                      
system.ruby.network.routers06.pwrStateResidencyTicks::UNDEFINED    764750500                       # Cumulative time (in ticks) in various power states
system.ruby.network.routers06.sw_input_arbiter_activity        21037                      
system.ruby.network.routers06.sw_output_arbiter_activity        21000                      
system.ruby.network.routers07.buffer_reads        19235                      
system.ruby.network.routers07.buffer_writes        19235                      
system.ruby.network.routers07.crossbar_activity        19235                      
system.ruby.network.routers07.pwrStateResidencyTicks::UNDEFINED    764750500                       # Cumulative time (in ticks) in various power states
system.ruby.network.routers07.sw_input_arbiter_activity        19400                      
system.ruby.network.routers07.sw_output_arbiter_activity        19235                      
system.ruby.network.routers08.buffer_reads        43551                      
system.ruby.network.routers08.buffer_writes        43551                      
system.ruby.network.routers08.crossbar_activity        43543                      
system.ruby.network.routers08.pwrStateResidencyTicks::UNDEFINED    764750500                       # Cumulative time (in ticks) in various power states
system.ruby.network.routers08.sw_input_arbiter_activity        44590                      
system.ruby.network.routers08.sw_output_arbiter_activity        43543                      
system.ruby.network.routers09.buffer_reads        22387                      
system.ruby.network.routers09.buffer_writes        22387                      
system.ruby.network.routers09.crossbar_activity        22386                      
system.ruby.network.routers09.pwrStateResidencyTicks::UNDEFINED    764750500                       # Cumulative time (in ticks) in various power states
system.ruby.network.routers09.sw_input_arbiter_activity        22457                      
system.ruby.network.routers09.sw_output_arbiter_activity        22386                      
system.ruby.network.routers10.buffer_reads        23549                      
system.ruby.network.routers10.buffer_writes        23549                      
system.ruby.network.routers10.crossbar_activity        23548                      
system.ruby.network.routers10.pwrStateResidencyTicks::UNDEFINED    764750500                       # Cumulative time (in ticks) in various power states
system.ruby.network.routers10.sw_input_arbiter_activity        23667                      
system.ruby.network.routers10.sw_output_arbiter_activity        23548                      
system.ruby.network.routers11.buffer_reads        26019                      
system.ruby.network.routers11.buffer_writes        26019                      
system.ruby.network.routers11.crossbar_activity        26016                      
system.ruby.network.routers11.pwrStateResidencyTicks::UNDEFINED    764750500                       # Cumulative time (in ticks) in various power states
system.ruby.network.routers11.sw_input_arbiter_activity        27483                      
system.ruby.network.routers11.sw_output_arbiter_activity        26016                      
system.ruby.network.routers12.buffer_reads        41042                      
system.ruby.network.routers12.buffer_writes        41042                      
system.ruby.network.routers12.crossbar_activity        41034                      
system.ruby.network.routers12.pwrStateResidencyTicks::UNDEFINED    764750500                       # Cumulative time (in ticks) in various power states
system.ruby.network.routers12.sw_input_arbiter_activity        42945                      
system.ruby.network.routers12.sw_output_arbiter_activity        41034                      
system.ruby.network.routers13.buffer_reads        28788                      
system.ruby.network.routers13.buffer_writes        28788                      
system.ruby.network.routers13.crossbar_activity        28788                      
system.ruby.network.routers13.pwrStateResidencyTicks::UNDEFINED    764750500                       # Cumulative time (in ticks) in various power states
system.ruby.network.routers13.sw_input_arbiter_activity        28965                      
system.ruby.network.routers13.sw_output_arbiter_activity        28788                      
system.ruby.network.routers14.buffer_reads        25849                      
system.ruby.network.routers14.buffer_writes        25849                      
system.ruby.network.routers14.crossbar_activity        25846                      
system.ruby.network.routers14.pwrStateResidencyTicks::UNDEFINED    764750500                       # Cumulative time (in ticks) in various power states
system.ruby.network.routers14.sw_input_arbiter_activity        25985                      
system.ruby.network.routers14.sw_output_arbiter_activity        25846                      
system.ruby.network.routers15.buffer_reads        23309                      
system.ruby.network.routers15.buffer_writes        23309                      
system.ruby.network.routers15.crossbar_activity        23303                      
system.ruby.network.routers15.pwrStateResidencyTicks::UNDEFINED    764750500                       # Cumulative time (in ticks) in various power states
system.ruby.network.routers15.sw_input_arbiter_activity        23759                      
system.ruby.network.routers15.sw_output_arbiter_activity        23303                      
system.ruby.outstanding_req_hist_seqr::bucket_size            1                      
system.ruby.outstanding_req_hist_seqr::max_bucket            9                      
system.ruby.outstanding_req_hist_seqr::samples       187962                      
system.ruby.outstanding_req_hist_seqr::mean            1                      
system.ruby.outstanding_req_hist_seqr::gmean            1                      
system.ruby.outstanding_req_hist_seqr    |           0      0.00%      0.00% |      187962    100.00%    100.00% |           0      0.00%    100.00% |           0      0.00%    100.00% |           0      0.00%    100.00% |           0      0.00%    100.00% |           0      0.00%    100.00% |           0      0.00%    100.00% |           0      0.00%    100.00% |           0      0.00%    100.00%
system.ruby.outstanding_req_hist_seqr::total       187962                      
system.ruby.pwrStateResidencyTicks::UNDEFINED    764750500                       # Cumulative time (in ticks) in various power states
system.sys_port_proxy.pwrStateResidencyTicks::UNDEFINED    764750500                       # Cumulative time (in ticks) in various power states
system.voltage_domain.voltage                       1                       # Voltage in Volts

---------- End Simulation Statistics   ----------
