
---------- Begin Simulation Statistics ----------
final_tick                                  797578000                       # Number of ticks from beginning of simulation (restored from checkpoints and never reset)
host_inst_rate                                  39515                       # Simulator instruction rate (inst/s)
host_mem_usage                                5159720                       # Number of bytes of host memory used
host_op_rate                                    39602                       # Simulator op (including micro ops) rate (op/s)
host_seconds                                     4.29                       # Real time elapsed on the host
host_tick_rate                              185830301                       # Simulator tick rate (ticks/s)
sim_freq                                 1000000000000                       # Frequency of simulated ticks
sim_insts                                      169588                       # Number of instructions simulated
sim_ops                                        169970                       # Number of ops (including micro ops) simulated
sim_seconds                                  0.000798                       # Number of seconds simulated
sim_ticks                                   797578000                       # Number of ticks simulated
system.clk_domain.clock                          1000                       # Clock period in ticks
system.cpu00.Branches                           22355                       # Number of branches fetched
system.cpu00.committedInsts                    100001                       # Number of instructions committed
system.cpu00.committedOps                      100294                       # Number of ops (including micro ops) committed
system.cpu00.dtb.accesses                           0                       # DTB accesses
system.cpu00.dtb.hits                               0                       # DTB hits
system.cpu00.dtb.misses                             0                       # DTB misses
system.cpu00.dtb.pwrStateResidencyTicks::UNDEFINED    797578000                       # Cumulative time (in ticks) in various power states
system.cpu00.dtb.read_accesses                      0                       # DTB read accesses
system.cpu00.dtb.read_hits                          0                       # DTB read hits
system.cpu00.dtb.read_misses                        0                       # DTB read misses
system.cpu00.dtb.write_accesses                     0                       # DTB write accesses
system.cpu00.dtb.write_hits                         0                       # DTB write hits
system.cpu00.dtb.write_misses                       0                       # DTB write misses
system.cpu00.idle_fraction                   0.004017                       # Percentage of idle cycles
system.cpu00.itb.accesses                           0                       # DTB accesses
system.cpu00.itb.hits                               0                       # DTB hits
system.cpu00.itb.misses                             0                       # DTB misses
system.cpu00.itb.pwrStateResidencyTicks::UNDEFINED    797578000                       # Cumulative time (in ticks) in various power states
system.cpu00.itb.read_accesses                      0                       # DTB read accesses
system.cpu00.itb.read_hits                          0                       # DTB read hits
system.cpu00.itb.read_misses                        0                       # DTB read misses
system.cpu00.itb.write_accesses                     0                       # DTB write accesses
system.cpu00.itb.write_hits                         0                       # DTB write hits
system.cpu00.itb.write_misses                       0                       # DTB write misses
system.cpu00.not_idle_fraction               0.995983                       # Percentage of non-idle cycles
system.cpu00.numCycles                        1595156                       # number of cpu cycles simulated
system.cpu00.numPwrStateTransitions                 2                       # Number of power state transitions
system.cpu00.numWorkItemsCompleted                  0                       # number of work items this cpu completed
system.cpu00.numWorkItemsStarted                    0                       # number of work items this cpu started
system.cpu00.num_busy_cycles             1588749.000008                       # Number of busy cycles
system.cpu00.num_conditional_control_insts        15943                       # number of instructions that are conditional controls
system.cpu00.num_fp_alu_accesses                   12                       # Number of float alu accesses
system.cpu00.num_fp_insts                          12                       # number of float instructions
system.cpu00.num_fp_register_reads                 12                       # number of times the floating registers were read
system.cpu00.num_fp_register_writes                 0                       # number of times the floating registers were written
system.cpu00.num_func_calls                      6412                       # number of times a function call or return occured
system.cpu00.num_idle_cycles              6406.999992                       # Number of idle cycles
system.cpu00.num_int_alu_accesses               98837                       # Number of integer alu accesses
system.cpu00.num_int_insts                      98837                       # number of integer instructions
system.cpu00.num_int_register_reads            120854                       # number of times the integer registers were read
system.cpu00.num_int_register_writes            64474                       # number of times the integer registers were written
system.cpu00.num_load_insts                     20282                       # Number of load instructions
system.cpu00.num_mem_refs                       36539                       # number of memory refs
system.cpu00.num_store_insts                    16257                       # Number of store instructions
system.cpu00.num_vec_alu_accesses                   0                       # Number of vector alu accesses
system.cpu00.num_vec_insts                          0                       # number of vector instructions
system.cpu00.num_vec_register_reads                 0                       # number of times the vector registers were read
system.cpu00.num_vec_register_writes                0                       # number of times the vector registers were written
system.cpu00.op_class::No_OpClass                 860      0.86%      0.86% # Class of executed instruction
system.cpu00.op_class::IntAlu                   62932     62.70%     63.56% # Class of executed instruction
system.cpu00.op_class::IntMult                     30      0.03%     63.59% # Class of executed instruction
system.cpu00.op_class::IntDiv                       6      0.01%     63.59% # Class of executed instruction
system.cpu00.op_class::FloatAdd                     0      0.00%     63.59% # Class of executed instruction
system.cpu00.op_class::FloatCmp                     0      0.00%     63.59% # Class of executed instruction
system.cpu00.op_class::FloatCvt                     0      0.00%     63.59% # Class of executed instruction
system.cpu00.op_class::FloatMult                    0      0.00%     63.59% # Class of executed instruction
system.cpu00.op_class::FloatMultAcc                 0      0.00%     63.59% # Class of executed instruction
system.cpu00.op_class::FloatDiv                     0      0.00%     63.59% # Class of executed instruction
system.cpu00.op_class::FloatMisc                    0      0.00%     63.59% # Class of executed instruction
system.cpu00.op_class::FloatSqrt                    0      0.00%     63.59% # Class of executed instruction
system.cpu00.op_class::SimdAdd                      0      0.00%     63.59% # Class of executed instruction
system.cpu00.op_class::SimdAddAcc                   0      0.00%     63.59% # Class of executed instruction
system.cpu00.op_class::SimdAlu                      0      0.00%     63.59% # Class of executed instruction
system.cpu00.op_class::SimdCmp                      0      0.00%     63.59% # Class of executed instruction
system.cpu00.op_class::SimdCvt                      0      0.00%     63.59% # Class of executed instruction
system.cpu00.op_class::SimdMisc                     0      0.00%     63.59% # Class of executed instruction
system.cpu00.op_class::SimdMult                     0      0.00%     63.59% # Class of executed instruction
system.cpu00.op_class::SimdMultAcc                  0      0.00%     63.59% # Class of executed instruction
system.cpu00.op_class::SimdShift                    0      0.00%     63.59% # Class of executed instruction
system.cpu00.op_class::SimdShiftAcc                 0      0.00%     63.59% # Class of executed instruction
system.cpu00.op_class::SimdSqrt                     0      0.00%     63.59% # Class of executed instruction
system.cpu00.op_class::SimdFloatAdd                 0      0.00%     63.59% # Class of executed instruction
system.cpu00.op_class::SimdFloatAlu                 0      0.00%     63.59% # Class of executed instruction
system.cpu00.op_class::SimdFloatCmp                 0      0.00%     63.59% # Class of executed instruction
system.cpu00.op_class::SimdFloatCvt                 0      0.00%     63.59% # Class of executed instruction
system.cpu00.op_class::SimdFloatDiv                 0      0.00%     63.59% # Class of executed instruction
system.cpu00.op_class::SimdFloatMisc                0      0.00%     63.59% # Class of executed instruction
system.cpu00.op_class::SimdFloatMult                0      0.00%     63.59% # Class of executed instruction
system.cpu00.op_class::SimdFloatMultAcc             0      0.00%     63.59% # Class of executed instruction
system.cpu00.op_class::SimdFloatSqrt                0      0.00%     63.59% # Class of executed instruction
system.cpu00.op_class::SimdAes                      0      0.00%     63.59% # Class of executed instruction
system.cpu00.op_class::SimdAesMix                   0      0.00%     63.59% # Class of executed instruction
system.cpu00.op_class::SimdSha1Hash                 0      0.00%     63.59% # Class of executed instruction
system.cpu00.op_class::SimdSha1Hash2                0      0.00%     63.59% # Class of executed instruction
system.cpu00.op_class::SimdSha256Hash               0      0.00%     63.59% # Class of executed instruction
system.cpu00.op_class::SimdSha256Hash2              0      0.00%     63.59% # Class of executed instruction
system.cpu00.op_class::SimdShaSigma2                0      0.00%     63.59% # Class of executed instruction
system.cpu00.op_class::SimdShaSigma3                0      0.00%     63.59% # Class of executed instruction
system.cpu00.op_class::MemRead                  20567     20.49%     84.09% # Class of executed instruction
system.cpu00.op_class::MemWrite                 15960     15.90%     99.99% # Class of executed instruction
system.cpu00.op_class::FloatMemRead                 0      0.00%     99.99% # Class of executed instruction
system.cpu00.op_class::FloatMemWrite               12      0.01%    100.00% # Class of executed instruction
system.cpu00.op_class::IprAccess                    0      0.00%    100.00% # Class of executed instruction
system.cpu00.op_class::InstPrefetch                 0      0.00%    100.00% # Class of executed instruction
system.cpu00.op_class::total                   100367                       # Class of executed instruction
system.cpu00.pwrStateClkGateDist::samples            1                       # Distribution of time spent in the clock gated state
system.cpu00.pwrStateClkGateDist::mean        3203500                       # Distribution of time spent in the clock gated state
system.cpu00.pwrStateClkGateDist::1000-5e+10            1    100.00%    100.00% # Distribution of time spent in the clock gated state
system.cpu00.pwrStateClkGateDist::min_value      3203500                       # Distribution of time spent in the clock gated state
system.cpu00.pwrStateClkGateDist::max_value      3203500                       # Distribution of time spent in the clock gated state
system.cpu00.pwrStateClkGateDist::total             1                       # Distribution of time spent in the clock gated state
system.cpu00.pwrStateResidencyTicks::ON     794374500                       # Cumulative time (in ticks) in various power states
system.cpu00.pwrStateResidencyTicks::CLK_GATED      3203500                       # Cumulative time (in ticks) in various power states
system.cpu00.workload.numSyscalls                  72                       # Number of system calls
system.cpu01.Branches                             949                       # Number of branches fetched
system.cpu01.committedInsts                      5063                       # Number of instructions committed
system.cpu01.committedOps                        5069                       # Number of ops (including micro ops) committed
system.cpu01.dtb.accesses                           0                       # DTB accesses
system.cpu01.dtb.hits                               0                       # DTB hits
system.cpu01.dtb.misses                             0                       # DTB misses
system.cpu01.dtb.pwrStateResidencyTicks::UNDEFINED    797578000                       # Cumulative time (in ticks) in various power states
system.cpu01.dtb.read_accesses                      0                       # DTB read accesses
system.cpu01.dtb.read_hits                          0                       # DTB read hits
system.cpu01.dtb.read_misses                        0                       # DTB read misses
system.cpu01.dtb.write_accesses                     0                       # DTB write accesses
system.cpu01.dtb.write_hits                         0                       # DTB write hits
system.cpu01.dtb.write_misses                       0                       # DTB write misses
system.cpu01.idle_fraction                   0.982560                       # Percentage of idle cycles
system.cpu01.itb.accesses                           0                       # DTB accesses
system.cpu01.itb.hits                               0                       # DTB hits
system.cpu01.itb.misses                             0                       # DTB misses
system.cpu01.itb.pwrStateResidencyTicks::UNDEFINED    797578000                       # Cumulative time (in ticks) in various power states
system.cpu01.itb.read_accesses                      0                       # DTB read accesses
system.cpu01.itb.read_hits                          0                       # DTB read hits
system.cpu01.itb.read_misses                        0                       # DTB read misses
system.cpu01.itb.write_accesses                     0                       # DTB write accesses
system.cpu01.itb.write_hits                         0                       # DTB write hits
system.cpu01.itb.write_misses                       0                       # DTB write misses
system.cpu01.not_idle_fraction               0.017440                       # Percentage of non-idle cycles
system.cpu01.numCycles                        1595156                       # number of cpu cycles simulated
system.cpu01.numPwrStateTransitions                 2                       # Number of power state transitions
system.cpu01.numWorkItemsCompleted                  0                       # number of work items this cpu completed
system.cpu01.numWorkItemsStarted                    0                       # number of work items this cpu started
system.cpu01.num_busy_cycles             27820.001965                       # Number of busy cycles
system.cpu01.num_conditional_control_insts          496                       # number of instructions that are conditional controls
system.cpu01.num_fp_alu_accesses                   12                       # Number of float alu accesses
system.cpu01.num_fp_insts                          12                       # number of float instructions
system.cpu01.num_fp_register_reads                 12                       # number of times the floating registers were read
system.cpu01.num_fp_register_writes                 0                       # number of times the floating registers were written
system.cpu01.num_func_calls                       453                       # number of times a function call or return occured
system.cpu01.num_idle_cycles             1567335.998035                       # Number of idle cycles
system.cpu01.num_int_alu_accesses                4981                       # Number of integer alu accesses
system.cpu01.num_int_insts                       4981                       # number of integer instructions
system.cpu01.num_int_register_reads              5738                       # number of times the integer registers were read
system.cpu01.num_int_register_writes             3697                       # number of times the integer registers were written
system.cpu01.num_load_insts                      1238                       # Number of load instructions
system.cpu01.num_mem_refs                        1833                       # number of memory refs
system.cpu01.num_store_insts                      595                       # Number of store instructions
system.cpu01.num_vec_alu_accesses                   0                       # Number of vector alu accesses
system.cpu01.num_vec_insts                          0                       # number of vector instructions
system.cpu01.num_vec_register_reads                 0                       # number of times the vector registers were read
system.cpu01.num_vec_register_writes                0                       # number of times the vector registers were written
system.cpu01.op_class::No_OpClass                  10      0.20%      0.20% # Class of executed instruction
system.cpu01.op_class::IntAlu                    3225     63.60%     63.79% # Class of executed instruction
system.cpu01.op_class::IntMult                      1      0.02%     63.81% # Class of executed instruction
system.cpu01.op_class::IntDiv                       2      0.04%     63.85% # Class of executed instruction
system.cpu01.op_class::FloatAdd                     0      0.00%     63.85% # Class of executed instruction
system.cpu01.op_class::FloatCmp                     0      0.00%     63.85% # Class of executed instruction
system.cpu01.op_class::FloatCvt                     0      0.00%     63.85% # Class of executed instruction
system.cpu01.op_class::FloatMult                    0      0.00%     63.85% # Class of executed instruction
system.cpu01.op_class::FloatMultAcc                 0      0.00%     63.85% # Class of executed instruction
system.cpu01.op_class::FloatDiv                     0      0.00%     63.85% # Class of executed instruction
system.cpu01.op_class::FloatMisc                    0      0.00%     63.85% # Class of executed instruction
system.cpu01.op_class::FloatSqrt                    0      0.00%     63.85% # Class of executed instruction
system.cpu01.op_class::SimdAdd                      0      0.00%     63.85% # Class of executed instruction
system.cpu01.op_class::SimdAddAcc                   0      0.00%     63.85% # Class of executed instruction
system.cpu01.op_class::SimdAlu                      0      0.00%     63.85% # Class of executed instruction
system.cpu01.op_class::SimdCmp                      0      0.00%     63.85% # Class of executed instruction
system.cpu01.op_class::SimdCvt                      0      0.00%     63.85% # Class of executed instruction
system.cpu01.op_class::SimdMisc                     0      0.00%     63.85% # Class of executed instruction
system.cpu01.op_class::SimdMult                     0      0.00%     63.85% # Class of executed instruction
system.cpu01.op_class::SimdMultAcc                  0      0.00%     63.85% # Class of executed instruction
system.cpu01.op_class::SimdShift                    0      0.00%     63.85% # Class of executed instruction
system.cpu01.op_class::SimdShiftAcc                 0      0.00%     63.85% # Class of executed instruction
system.cpu01.op_class::SimdSqrt                     0      0.00%     63.85% # Class of executed instruction
system.cpu01.op_class::SimdFloatAdd                 0      0.00%     63.85% # Class of executed instruction
system.cpu01.op_class::SimdFloatAlu                 0      0.00%     63.85% # Class of executed instruction
system.cpu01.op_class::SimdFloatCmp                 0      0.00%     63.85% # Class of executed instruction
system.cpu01.op_class::SimdFloatCvt                 0      0.00%     63.85% # Class of executed instruction
system.cpu01.op_class::SimdFloatDiv                 0      0.00%     63.85% # Class of executed instruction
system.cpu01.op_class::SimdFloatMisc                0      0.00%     63.85% # Class of executed instruction
system.cpu01.op_class::SimdFloatMult                0      0.00%     63.85% # Class of executed instruction
system.cpu01.op_class::SimdFloatMultAcc             0      0.00%     63.85% # Class of executed instruction
system.cpu01.op_class::SimdFloatSqrt                0      0.00%     63.85% # Class of executed instruction
system.cpu01.op_class::SimdAes                      0      0.00%     63.85% # Class of executed instruction
system.cpu01.op_class::SimdAesMix                   0      0.00%     63.85% # Class of executed instruction
system.cpu01.op_class::SimdSha1Hash                 0      0.00%     63.85% # Class of executed instruction
system.cpu01.op_class::SimdSha1Hash2                0      0.00%     63.85% # Class of executed instruction
system.cpu01.op_class::SimdSha256Hash               0      0.00%     63.85% # Class of executed instruction
system.cpu01.op_class::SimdSha256Hash2              0      0.00%     63.85% # Class of executed instruction
system.cpu01.op_class::SimdShaSigma2                0      0.00%     63.85% # Class of executed instruction
system.cpu01.op_class::SimdShaSigma3                0      0.00%     63.85% # Class of executed instruction
system.cpu01.op_class::MemRead                   1242     24.49%     88.35% # Class of executed instruction
system.cpu01.op_class::MemWrite                   579     11.42%     99.76% # Class of executed instruction
system.cpu01.op_class::FloatMemRead                 0      0.00%     99.76% # Class of executed instruction
system.cpu01.op_class::FloatMemWrite               12      0.24%    100.00% # Class of executed instruction
system.cpu01.op_class::IprAccess                    0      0.00%    100.00% # Class of executed instruction
system.cpu01.op_class::InstPrefetch                 0      0.00%    100.00% # Class of executed instruction
system.cpu01.op_class::total                     5071                       # Class of executed instruction
system.cpu01.pwrStateClkGateDist::samples            1                       # Distribution of time spent in the clock gated state
system.cpu01.pwrStateClkGateDist::mean      163750500                       # Distribution of time spent in the clock gated state
system.cpu01.pwrStateClkGateDist::1000-5e+10            1    100.00%    100.00% # Distribution of time spent in the clock gated state
system.cpu01.pwrStateClkGateDist::min_value    163750500                       # Distribution of time spent in the clock gated state
system.cpu01.pwrStateClkGateDist::max_value    163750500                       # Distribution of time spent in the clock gated state
system.cpu01.pwrStateClkGateDist::total             1                       # Distribution of time spent in the clock gated state
system.cpu01.pwrStateResidencyTicks::ON     633827500                       # Cumulative time (in ticks) in various power states
system.cpu01.pwrStateResidencyTicks::CLK_GATED    163750500                       # Cumulative time (in ticks) in various power states
system.cpu02.Branches                             946                       # Number of branches fetched
system.cpu02.committedInsts                      5043                       # Number of instructions committed
system.cpu02.committedOps                        5049                       # Number of ops (including micro ops) committed
system.cpu02.dtb.accesses                           0                       # DTB accesses
system.cpu02.dtb.hits                               0                       # DTB hits
system.cpu02.dtb.misses                             0                       # DTB misses
system.cpu02.dtb.pwrStateResidencyTicks::UNDEFINED    797578000                       # Cumulative time (in ticks) in various power states
system.cpu02.dtb.read_accesses                      0                       # DTB read accesses
system.cpu02.dtb.read_hits                          0                       # DTB read hits
system.cpu02.dtb.read_misses                        0                       # DTB read misses
system.cpu02.dtb.write_accesses                     0                       # DTB write accesses
system.cpu02.dtb.write_hits                         0                       # DTB write hits
system.cpu02.dtb.write_misses                       0                       # DTB write misses
system.cpu02.idle_fraction                   0.984366                       # Percentage of idle cycles
system.cpu02.itb.accesses                           0                       # DTB accesses
system.cpu02.itb.hits                               0                       # DTB hits
system.cpu02.itb.misses                             0                       # DTB misses
system.cpu02.itb.pwrStateResidencyTicks::UNDEFINED    797578000                       # Cumulative time (in ticks) in various power states
system.cpu02.itb.read_accesses                      0                       # DTB read accesses
system.cpu02.itb.read_hits                          0                       # DTB read hits
system.cpu02.itb.read_misses                        0                       # DTB read misses
system.cpu02.itb.write_accesses                     0                       # DTB write accesses
system.cpu02.itb.write_hits                         0                       # DTB write hits
system.cpu02.itb.write_misses                       0                       # DTB write misses
system.cpu02.not_idle_fraction               0.015634                       # Percentage of non-idle cycles
system.cpu02.numCycles                        1595156                       # number of cpu cycles simulated
system.cpu02.numPwrStateTransitions                 2                       # Number of power state transitions
system.cpu02.numWorkItemsCompleted                  0                       # number of work items this cpu completed
system.cpu02.numWorkItemsStarted                    0                       # number of work items this cpu started
system.cpu02.num_busy_cycles             24938.001969                       # Number of busy cycles
system.cpu02.num_conditional_control_insts          494                       # number of instructions that are conditional controls
system.cpu02.num_fp_alu_accesses                   12                       # Number of float alu accesses
system.cpu02.num_fp_insts                          12                       # number of float instructions
system.cpu02.num_fp_register_reads                 12                       # number of times the floating registers were read
system.cpu02.num_fp_register_writes                 0                       # number of times the floating registers were written
system.cpu02.num_func_calls                       452                       # number of times a function call or return occured
system.cpu02.num_idle_cycles             1570217.998031                       # Number of idle cycles
system.cpu02.num_int_alu_accesses                4961                       # Number of integer alu accesses
system.cpu02.num_int_insts                       4961                       # number of integer instructions
system.cpu02.num_int_register_reads              5716                       # number of times the integer registers were read
system.cpu02.num_int_register_writes             3681                       # number of times the integer registers were written
system.cpu02.num_load_insts                      1233                       # Number of load instructions
system.cpu02.num_mem_refs                        1826                       # number of memory refs
system.cpu02.num_store_insts                      593                       # Number of store instructions
system.cpu02.num_vec_alu_accesses                   0                       # Number of vector alu accesses
system.cpu02.num_vec_insts                          0                       # number of vector instructions
system.cpu02.num_vec_register_reads                 0                       # number of times the vector registers were read
system.cpu02.num_vec_register_writes                0                       # number of times the vector registers were written
system.cpu02.op_class::No_OpClass                  10      0.20%      0.20% # Class of executed instruction
system.cpu02.op_class::IntAlu                    3212     63.59%     63.79% # Class of executed instruction
system.cpu02.op_class::IntMult                      1      0.02%     63.81% # Class of executed instruction
system.cpu02.op_class::IntDiv                       2      0.04%     63.85% # Class of executed instruction
system.cpu02.op_class::FloatAdd                     0      0.00%     63.85% # Class of executed instruction
system.cpu02.op_class::FloatCmp                     0      0.00%     63.85% # Class of executed instruction
system.cpu02.op_class::FloatCvt                     0      0.00%     63.85% # Class of executed instruction
system.cpu02.op_class::FloatMult                    0      0.00%     63.85% # Class of executed instruction
system.cpu02.op_class::FloatMultAcc                 0      0.00%     63.85% # Class of executed instruction
system.cpu02.op_class::FloatDiv                     0      0.00%     63.85% # Class of executed instruction
system.cpu02.op_class::FloatMisc                    0      0.00%     63.85% # Class of executed instruction
system.cpu02.op_class::FloatSqrt                    0      0.00%     63.85% # Class of executed instruction
system.cpu02.op_class::SimdAdd                      0      0.00%     63.85% # Class of executed instruction
system.cpu02.op_class::SimdAddAcc                   0      0.00%     63.85% # Class of executed instruction
system.cpu02.op_class::SimdAlu                      0      0.00%     63.85% # Class of executed instruction
system.cpu02.op_class::SimdCmp                      0      0.00%     63.85% # Class of executed instruction
system.cpu02.op_class::SimdCvt                      0      0.00%     63.85% # Class of executed instruction
system.cpu02.op_class::SimdMisc                     0      0.00%     63.85% # Class of executed instruction
system.cpu02.op_class::SimdMult                     0      0.00%     63.85% # Class of executed instruction
system.cpu02.op_class::SimdMultAcc                  0      0.00%     63.85% # Class of executed instruction
system.cpu02.op_class::SimdShift                    0      0.00%     63.85% # Class of executed instruction
system.cpu02.op_class::SimdShiftAcc                 0      0.00%     63.85% # Class of executed instruction
system.cpu02.op_class::SimdSqrt                     0      0.00%     63.85% # Class of executed instruction
system.cpu02.op_class::SimdFloatAdd                 0      0.00%     63.85% # Class of executed instruction
system.cpu02.op_class::SimdFloatAlu                 0      0.00%     63.85% # Class of executed instruction
system.cpu02.op_class::SimdFloatCmp                 0      0.00%     63.85% # Class of executed instruction
system.cpu02.op_class::SimdFloatCvt                 0      0.00%     63.85% # Class of executed instruction
system.cpu02.op_class::SimdFloatDiv                 0      0.00%     63.85% # Class of executed instruction
system.cpu02.op_class::SimdFloatMisc                0      0.00%     63.85% # Class of executed instruction
system.cpu02.op_class::SimdFloatMult                0      0.00%     63.85% # Class of executed instruction
system.cpu02.op_class::SimdFloatMultAcc             0      0.00%     63.85% # Class of executed instruction
system.cpu02.op_class::SimdFloatSqrt                0      0.00%     63.85% # Class of executed instruction
system.cpu02.op_class::SimdAes                      0      0.00%     63.85% # Class of executed instruction
system.cpu02.op_class::SimdAesMix                   0      0.00%     63.85% # Class of executed instruction
system.cpu02.op_class::SimdSha1Hash                 0      0.00%     63.85% # Class of executed instruction
system.cpu02.op_class::SimdSha1Hash2                0      0.00%     63.85% # Class of executed instruction
system.cpu02.op_class::SimdSha256Hash               0      0.00%     63.85% # Class of executed instruction
system.cpu02.op_class::SimdSha256Hash2              0      0.00%     63.85% # Class of executed instruction
system.cpu02.op_class::SimdShaSigma2                0      0.00%     63.85% # Class of executed instruction
system.cpu02.op_class::SimdShaSigma3                0      0.00%     63.85% # Class of executed instruction
system.cpu02.op_class::MemRead                   1237     24.49%     88.34% # Class of executed instruction
system.cpu02.op_class::MemWrite                   577     11.42%     99.76% # Class of executed instruction
system.cpu02.op_class::FloatMemRead                 0      0.00%     99.76% # Class of executed instruction
system.cpu02.op_class::FloatMemWrite               12      0.24%    100.00% # Class of executed instruction
system.cpu02.op_class::IprAccess                    0      0.00%    100.00% # Class of executed instruction
system.cpu02.op_class::InstPrefetch                 0      0.00%    100.00% # Class of executed instruction
system.cpu02.op_class::total                     5051                       # Class of executed instruction
system.cpu02.pwrStateClkGateDist::samples            1                       # Distribution of time spent in the clock gated state
system.cpu02.pwrStateClkGateDist::mean      153443500                       # Distribution of time spent in the clock gated state
system.cpu02.pwrStateClkGateDist::1000-5e+10            1    100.00%    100.00% # Distribution of time spent in the clock gated state
system.cpu02.pwrStateClkGateDist::min_value    153443500                       # Distribution of time spent in the clock gated state
system.cpu02.pwrStateClkGateDist::max_value    153443500                       # Distribution of time spent in the clock gated state
system.cpu02.pwrStateClkGateDist::total             1                       # Distribution of time spent in the clock gated state
system.cpu02.pwrStateResidencyTicks::ON     644134500                       # Cumulative time (in ticks) in various power states
system.cpu02.pwrStateResidencyTicks::CLK_GATED    153443500                       # Cumulative time (in ticks) in various power states
system.cpu03.Branches                             938                       # Number of branches fetched
system.cpu03.committedInsts                      4965                       # Number of instructions committed
system.cpu03.committedOps                        4971                       # Number of ops (including micro ops) committed
system.cpu03.dtb.accesses                           0                       # DTB accesses
system.cpu03.dtb.hits                               0                       # DTB hits
system.cpu03.dtb.misses                             0                       # DTB misses
system.cpu03.dtb.pwrStateResidencyTicks::UNDEFINED    797578000                       # Cumulative time (in ticks) in various power states
system.cpu03.dtb.read_accesses                      0                       # DTB read accesses
system.cpu03.dtb.read_hits                          0                       # DTB read hits
system.cpu03.dtb.read_misses                        0                       # DTB read misses
system.cpu03.dtb.write_accesses                     0                       # DTB write accesses
system.cpu03.dtb.write_hits                         0                       # DTB write hits
system.cpu03.dtb.write_misses                       0                       # DTB write misses
system.cpu03.idle_fraction                   0.984610                       # Percentage of idle cycles
system.cpu03.itb.accesses                           0                       # DTB accesses
system.cpu03.itb.hits                               0                       # DTB hits
system.cpu03.itb.misses                             0                       # DTB misses
system.cpu03.itb.pwrStateResidencyTicks::UNDEFINED    797578000                       # Cumulative time (in ticks) in various power states
system.cpu03.itb.read_accesses                      0                       # DTB read accesses
system.cpu03.itb.read_hits                          0                       # DTB read hits
system.cpu03.itb.read_misses                        0                       # DTB read misses
system.cpu03.itb.write_accesses                     0                       # DTB write accesses
system.cpu03.itb.write_hits                         0                       # DTB write hits
system.cpu03.itb.write_misses                       0                       # DTB write misses
system.cpu03.not_idle_fraction               0.015390                       # Percentage of non-idle cycles
system.cpu03.numCycles                        1595155                       # number of cpu cycles simulated
system.cpu03.numPwrStateTransitions                 2                       # Number of power state transitions
system.cpu03.numWorkItemsCompleted                  0                       # number of work items this cpu completed
system.cpu03.numWorkItemsStarted                    0                       # number of work items this cpu started
system.cpu03.num_busy_cycles             24548.986580                       # Number of busy cycles
system.cpu03.num_conditional_control_insts          477                       # number of instructions that are conditional controls
system.cpu03.num_fp_alu_accesses                   12                       # Number of float alu accesses
system.cpu03.num_fp_insts                          12                       # number of float instructions
system.cpu03.num_fp_register_reads                 12                       # number of times the floating registers were read
system.cpu03.num_fp_register_writes                 0                       # number of times the floating registers were written
system.cpu03.num_func_calls                       461                       # number of times a function call or return occured
system.cpu03.num_idle_cycles             1570606.013420                       # Number of idle cycles
system.cpu03.num_int_alu_accesses                4869                       # Number of integer alu accesses
system.cpu03.num_int_insts                       4869                       # number of integer instructions
system.cpu03.num_int_register_reads              5615                       # number of times the integer registers were read
system.cpu03.num_int_register_writes             3616                       # number of times the integer registers were written
system.cpu03.num_load_insts                      1216                       # Number of load instructions
system.cpu03.num_mem_refs                        1798                       # number of memory refs
system.cpu03.num_store_insts                      582                       # Number of store instructions
system.cpu03.num_vec_alu_accesses                   0                       # Number of vector alu accesses
system.cpu03.num_vec_insts                          0                       # number of vector instructions
system.cpu03.num_vec_register_reads                 0                       # number of times the vector registers were read
system.cpu03.num_vec_register_writes                0                       # number of times the vector registers were written
system.cpu03.op_class::No_OpClass                  10      0.20%      0.20% # Class of executed instruction
system.cpu03.op_class::IntAlu                    3162     63.58%     63.78% # Class of executed instruction
system.cpu03.op_class::IntMult                      1      0.02%     63.80% # Class of executed instruction
system.cpu03.op_class::IntDiv                       2      0.04%     63.84% # Class of executed instruction
system.cpu03.op_class::FloatAdd                     0      0.00%     63.84% # Class of executed instruction
system.cpu03.op_class::FloatCmp                     0      0.00%     63.84% # Class of executed instruction
system.cpu03.op_class::FloatCvt                     0      0.00%     63.84% # Class of executed instruction
system.cpu03.op_class::FloatMult                    0      0.00%     63.84% # Class of executed instruction
system.cpu03.op_class::FloatMultAcc                 0      0.00%     63.84% # Class of executed instruction
system.cpu03.op_class::FloatDiv                     0      0.00%     63.84% # Class of executed instruction
system.cpu03.op_class::FloatMisc                    0      0.00%     63.84% # Class of executed instruction
system.cpu03.op_class::FloatSqrt                    0      0.00%     63.84% # Class of executed instruction
system.cpu03.op_class::SimdAdd                      0      0.00%     63.84% # Class of executed instruction
system.cpu03.op_class::SimdAddAcc                   0      0.00%     63.84% # Class of executed instruction
system.cpu03.op_class::SimdAlu                      0      0.00%     63.84% # Class of executed instruction
system.cpu03.op_class::SimdCmp                      0      0.00%     63.84% # Class of executed instruction
system.cpu03.op_class::SimdCvt                      0      0.00%     63.84% # Class of executed instruction
system.cpu03.op_class::SimdMisc                     0      0.00%     63.84% # Class of executed instruction
system.cpu03.op_class::SimdMult                     0      0.00%     63.84% # Class of executed instruction
system.cpu03.op_class::SimdMultAcc                  0      0.00%     63.84% # Class of executed instruction
system.cpu03.op_class::SimdShift                    0      0.00%     63.84% # Class of executed instruction
system.cpu03.op_class::SimdShiftAcc                 0      0.00%     63.84% # Class of executed instruction
system.cpu03.op_class::SimdSqrt                     0      0.00%     63.84% # Class of executed instruction
system.cpu03.op_class::SimdFloatAdd                 0      0.00%     63.84% # Class of executed instruction
system.cpu03.op_class::SimdFloatAlu                 0      0.00%     63.84% # Class of executed instruction
system.cpu03.op_class::SimdFloatCmp                 0      0.00%     63.84% # Class of executed instruction
system.cpu03.op_class::SimdFloatCvt                 0      0.00%     63.84% # Class of executed instruction
system.cpu03.op_class::SimdFloatDiv                 0      0.00%     63.84% # Class of executed instruction
system.cpu03.op_class::SimdFloatMisc                0      0.00%     63.84% # Class of executed instruction
system.cpu03.op_class::SimdFloatMult                0      0.00%     63.84% # Class of executed instruction
system.cpu03.op_class::SimdFloatMultAcc             0      0.00%     63.84% # Class of executed instruction
system.cpu03.op_class::SimdFloatSqrt                0      0.00%     63.84% # Class of executed instruction
system.cpu03.op_class::SimdAes                      0      0.00%     63.84% # Class of executed instruction
system.cpu03.op_class::SimdAesMix                   0      0.00%     63.84% # Class of executed instruction
system.cpu03.op_class::SimdSha1Hash                 0      0.00%     63.84% # Class of executed instruction
system.cpu03.op_class::SimdSha1Hash2                0      0.00%     63.84% # Class of executed instruction
system.cpu03.op_class::SimdSha256Hash               0      0.00%     63.84% # Class of executed instruction
system.cpu03.op_class::SimdSha256Hash2              0      0.00%     63.84% # Class of executed instruction
system.cpu03.op_class::SimdShaSigma2                0      0.00%     63.84% # Class of executed instruction
system.cpu03.op_class::SimdShaSigma3                0      0.00%     63.84% # Class of executed instruction
system.cpu03.op_class::MemRead                   1220     24.53%     88.38% # Class of executed instruction
system.cpu03.op_class::MemWrite                   566     11.38%     99.76% # Class of executed instruction
system.cpu03.op_class::FloatMemRead                 0      0.00%     99.76% # Class of executed instruction
system.cpu03.op_class::FloatMemWrite               12      0.24%    100.00% # Class of executed instruction
system.cpu03.op_class::IprAccess                    0      0.00%    100.00% # Class of executed instruction
system.cpu03.op_class::InstPrefetch                 0      0.00%    100.00% # Class of executed instruction
system.cpu03.op_class::total                     4973                       # Class of executed instruction
system.cpu03.pwrStateClkGateDist::samples            1                       # Distribution of time spent in the clock gated state
system.cpu03.pwrStateClkGateDist::mean      142365000                       # Distribution of time spent in the clock gated state
system.cpu03.pwrStateClkGateDist::1000-5e+10            1    100.00%    100.00% # Distribution of time spent in the clock gated state
system.cpu03.pwrStateClkGateDist::min_value    142365000                       # Distribution of time spent in the clock gated state
system.cpu03.pwrStateClkGateDist::max_value    142365000                       # Distribution of time spent in the clock gated state
system.cpu03.pwrStateClkGateDist::total             1                       # Distribution of time spent in the clock gated state
system.cpu03.pwrStateResidencyTicks::ON     655213000                       # Cumulative time (in ticks) in various power states
system.cpu03.pwrStateResidencyTicks::CLK_GATED    142365000                       # Cumulative time (in ticks) in various power states
system.cpu04.Branches                             941                       # Number of branches fetched
system.cpu04.committedInsts                      4976                       # Number of instructions committed
system.cpu04.committedOps                        4982                       # Number of ops (including micro ops) committed
system.cpu04.dtb.accesses                           0                       # DTB accesses
system.cpu04.dtb.hits                               0                       # DTB hits
system.cpu04.dtb.misses                             0                       # DTB misses
system.cpu04.dtb.pwrStateResidencyTicks::UNDEFINED    797578000                       # Cumulative time (in ticks) in various power states
system.cpu04.dtb.read_accesses                      0                       # DTB read accesses
system.cpu04.dtb.read_hits                          0                       # DTB read hits
system.cpu04.dtb.read_misses                        0                       # DTB read misses
system.cpu04.dtb.write_accesses                     0                       # DTB write accesses
system.cpu04.dtb.write_hits                         0                       # DTB write hits
system.cpu04.dtb.write_misses                       0                       # DTB write misses
system.cpu04.idle_fraction                   0.984496                       # Percentage of idle cycles
system.cpu04.itb.accesses                           0                       # DTB accesses
system.cpu04.itb.hits                               0                       # DTB hits
system.cpu04.itb.misses                             0                       # DTB misses
system.cpu04.itb.pwrStateResidencyTicks::UNDEFINED    797578000                       # Cumulative time (in ticks) in various power states
system.cpu04.itb.read_accesses                      0                       # DTB read accesses
system.cpu04.itb.read_hits                          0                       # DTB read hits
system.cpu04.itb.read_misses                        0                       # DTB read misses
system.cpu04.itb.write_accesses                     0                       # DTB write accesses
system.cpu04.itb.write_hits                         0                       # DTB write hits
system.cpu04.itb.write_misses                       0                       # DTB write misses
system.cpu04.not_idle_fraction               0.015504                       # Percentage of non-idle cycles
system.cpu04.numCycles                        1595155                       # number of cpu cycles simulated
system.cpu04.numPwrStateTransitions                 2                       # Number of power state transitions
system.cpu04.numWorkItemsCompleted                  0                       # number of work items this cpu completed
system.cpu04.numWorkItemsStarted                    0                       # number of work items this cpu started
system.cpu04.num_busy_cycles             24730.986465                       # Number of busy cycles
system.cpu04.num_conditional_control_insts          477                       # number of instructions that are conditional controls
system.cpu04.num_fp_alu_accesses                   12                       # Number of float alu accesses
system.cpu04.num_fp_insts                          12                       # number of float instructions
system.cpu04.num_fp_register_reads                 12                       # number of times the floating registers were read
system.cpu04.num_fp_register_writes                 0                       # number of times the floating registers were written
system.cpu04.num_func_calls                       464                       # number of times a function call or return occured
system.cpu04.num_idle_cycles             1570424.013535                       # Number of idle cycles
system.cpu04.num_int_alu_accesses                4878                       # Number of integer alu accesses
system.cpu04.num_int_insts                       4878                       # number of integer instructions
system.cpu04.num_int_register_reads              5626                       # number of times the integer registers were read
system.cpu04.num_int_register_writes             3623                       # number of times the integer registers were written
system.cpu04.num_load_insts                      1218                       # Number of load instructions
system.cpu04.num_mem_refs                        1801                       # number of memory refs
system.cpu04.num_store_insts                      583                       # Number of store instructions
system.cpu04.num_vec_alu_accesses                   0                       # Number of vector alu accesses
system.cpu04.num_vec_insts                          0                       # number of vector instructions
system.cpu04.num_vec_register_reads                 0                       # number of times the vector registers were read
system.cpu04.num_vec_register_writes                0                       # number of times the vector registers were written
system.cpu04.op_class::No_OpClass                  10      0.20%      0.20% # Class of executed instruction
system.cpu04.op_class::IntAlu                    3170     63.60%     63.80% # Class of executed instruction
system.cpu04.op_class::IntMult                      1      0.02%     63.82% # Class of executed instruction
system.cpu04.op_class::IntDiv                       2      0.04%     63.86% # Class of executed instruction
system.cpu04.op_class::FloatAdd                     0      0.00%     63.86% # Class of executed instruction
system.cpu04.op_class::FloatCmp                     0      0.00%     63.86% # Class of executed instruction
system.cpu04.op_class::FloatCvt                     0      0.00%     63.86% # Class of executed instruction
system.cpu04.op_class::FloatMult                    0      0.00%     63.86% # Class of executed instruction
system.cpu04.op_class::FloatMultAcc                 0      0.00%     63.86% # Class of executed instruction
system.cpu04.op_class::FloatDiv                     0      0.00%     63.86% # Class of executed instruction
system.cpu04.op_class::FloatMisc                    0      0.00%     63.86% # Class of executed instruction
system.cpu04.op_class::FloatSqrt                    0      0.00%     63.86% # Class of executed instruction
system.cpu04.op_class::SimdAdd                      0      0.00%     63.86% # Class of executed instruction
system.cpu04.op_class::SimdAddAcc                   0      0.00%     63.86% # Class of executed instruction
system.cpu04.op_class::SimdAlu                      0      0.00%     63.86% # Class of executed instruction
system.cpu04.op_class::SimdCmp                      0      0.00%     63.86% # Class of executed instruction
system.cpu04.op_class::SimdCvt                      0      0.00%     63.86% # Class of executed instruction
system.cpu04.op_class::SimdMisc                     0      0.00%     63.86% # Class of executed instruction
system.cpu04.op_class::SimdMult                     0      0.00%     63.86% # Class of executed instruction
system.cpu04.op_class::SimdMultAcc                  0      0.00%     63.86% # Class of executed instruction
system.cpu04.op_class::SimdShift                    0      0.00%     63.86% # Class of executed instruction
system.cpu04.op_class::SimdShiftAcc                 0      0.00%     63.86% # Class of executed instruction
system.cpu04.op_class::SimdSqrt                     0      0.00%     63.86% # Class of executed instruction
system.cpu04.op_class::SimdFloatAdd                 0      0.00%     63.86% # Class of executed instruction
system.cpu04.op_class::SimdFloatAlu                 0      0.00%     63.86% # Class of executed instruction
system.cpu04.op_class::SimdFloatCmp                 0      0.00%     63.86% # Class of executed instruction
system.cpu04.op_class::SimdFloatCvt                 0      0.00%     63.86% # Class of executed instruction
system.cpu04.op_class::SimdFloatDiv                 0      0.00%     63.86% # Class of executed instruction
system.cpu04.op_class::SimdFloatMisc                0      0.00%     63.86% # Class of executed instruction
system.cpu04.op_class::SimdFloatMult                0      0.00%     63.86% # Class of executed instruction
system.cpu04.op_class::SimdFloatMultAcc             0      0.00%     63.86% # Class of executed instruction
system.cpu04.op_class::SimdFloatSqrt                0      0.00%     63.86% # Class of executed instruction
system.cpu04.op_class::SimdAes                      0      0.00%     63.86% # Class of executed instruction
system.cpu04.op_class::SimdAesMix                   0      0.00%     63.86% # Class of executed instruction
system.cpu04.op_class::SimdSha1Hash                 0      0.00%     63.86% # Class of executed instruction
system.cpu04.op_class::SimdSha1Hash2                0      0.00%     63.86% # Class of executed instruction
system.cpu04.op_class::SimdSha256Hash               0      0.00%     63.86% # Class of executed instruction
system.cpu04.op_class::SimdSha256Hash2              0      0.00%     63.86% # Class of executed instruction
system.cpu04.op_class::SimdShaSigma2                0      0.00%     63.86% # Class of executed instruction
system.cpu04.op_class::SimdShaSigma3                0      0.00%     63.86% # Class of executed instruction
system.cpu04.op_class::MemRead                   1222     24.52%     88.38% # Class of executed instruction
system.cpu04.op_class::MemWrite                   567     11.38%     99.76% # Class of executed instruction
system.cpu04.op_class::FloatMemRead                 0      0.00%     99.76% # Class of executed instruction
system.cpu04.op_class::FloatMemWrite               12      0.24%    100.00% # Class of executed instruction
system.cpu04.op_class::IprAccess                    0      0.00%    100.00% # Class of executed instruction
system.cpu04.op_class::InstPrefetch                 0      0.00%    100.00% # Class of executed instruction
system.cpu04.op_class::total                     4984                       # Class of executed instruction
system.cpu04.pwrStateClkGateDist::samples            1                       # Distribution of time spent in the clock gated state
system.cpu04.pwrStateClkGateDist::mean      128830000                       # Distribution of time spent in the clock gated state
system.cpu04.pwrStateClkGateDist::1000-5e+10            1    100.00%    100.00% # Distribution of time spent in the clock gated state
system.cpu04.pwrStateClkGateDist::min_value    128830000                       # Distribution of time spent in the clock gated state
system.cpu04.pwrStateClkGateDist::max_value    128830000                       # Distribution of time spent in the clock gated state
system.cpu04.pwrStateClkGateDist::total             1                       # Distribution of time spent in the clock gated state
system.cpu04.pwrStateResidencyTicks::ON     668748000                       # Cumulative time (in ticks) in various power states
system.cpu04.pwrStateResidencyTicks::CLK_GATED    128830000                       # Cumulative time (in ticks) in various power states
system.cpu05.Branches                             942                       # Number of branches fetched
system.cpu05.committedInsts                      4985                       # Number of instructions committed
system.cpu05.committedOps                        4991                       # Number of ops (including micro ops) committed
system.cpu05.dtb.accesses                           0                       # DTB accesses
system.cpu05.dtb.hits                               0                       # DTB hits
system.cpu05.dtb.misses                             0                       # DTB misses
system.cpu05.dtb.pwrStateResidencyTicks::UNDEFINED    797578000                       # Cumulative time (in ticks) in various power states
system.cpu05.dtb.read_accesses                      0                       # DTB read accesses
system.cpu05.dtb.read_hits                          0                       # DTB read hits
system.cpu05.dtb.read_misses                        0                       # DTB read misses
system.cpu05.dtb.write_accesses                     0                       # DTB write accesses
system.cpu05.dtb.write_hits                         0                       # DTB write hits
system.cpu05.dtb.write_misses                       0                       # DTB write misses
system.cpu05.idle_fraction                   0.984581                       # Percentage of idle cycles
system.cpu05.itb.accesses                           0                       # DTB accesses
system.cpu05.itb.hits                               0                       # DTB hits
system.cpu05.itb.misses                             0                       # DTB misses
system.cpu05.itb.pwrStateResidencyTicks::UNDEFINED    797578000                       # Cumulative time (in ticks) in various power states
system.cpu05.itb.read_accesses                      0                       # DTB read accesses
system.cpu05.itb.read_hits                          0                       # DTB read hits
system.cpu05.itb.read_misses                        0                       # DTB read misses
system.cpu05.itb.write_accesses                     0                       # DTB write accesses
system.cpu05.itb.write_hits                         0                       # DTB write hits
system.cpu05.itb.write_misses                       0                       # DTB write misses
system.cpu05.not_idle_fraction               0.015419                       # Percentage of non-idle cycles
system.cpu05.numCycles                        1595156                       # number of cpu cycles simulated
system.cpu05.numPwrStateTransitions                 2                       # Number of power state transitions
system.cpu05.numWorkItemsCompleted                  0                       # number of work items this cpu completed
system.cpu05.numWorkItemsStarted                    0                       # number of work items this cpu started
system.cpu05.num_busy_cycles             24595.001969                       # Number of busy cycles
system.cpu05.num_conditional_control_insts          479                       # number of instructions that are conditional controls
system.cpu05.num_fp_alu_accesses                   12                       # Number of float alu accesses
system.cpu05.num_fp_insts                          12                       # number of float instructions
system.cpu05.num_fp_register_reads                 12                       # number of times the floating registers were read
system.cpu05.num_fp_register_writes                 0                       # number of times the floating registers were written
system.cpu05.num_func_calls                       463                       # number of times a function call or return occured
system.cpu05.num_idle_cycles             1570560.998031                       # Number of idle cycles
system.cpu05.num_int_alu_accesses                4889                       # Number of integer alu accesses
system.cpu05.num_int_insts                       4889                       # number of integer instructions
system.cpu05.num_int_register_reads              5636                       # number of times the integer registers were read
system.cpu05.num_int_register_writes             3631                       # number of times the integer registers were written
system.cpu05.num_load_insts                      1219                       # Number of load instructions
system.cpu05.num_mem_refs                        1803                       # number of memory refs
system.cpu05.num_store_insts                      584                       # Number of store instructions
system.cpu05.num_vec_alu_accesses                   0                       # Number of vector alu accesses
system.cpu05.num_vec_insts                          0                       # number of vector instructions
system.cpu05.num_vec_register_reads                 0                       # number of times the vector registers were read
system.cpu05.num_vec_register_writes                0                       # number of times the vector registers were written
system.cpu05.op_class::No_OpClass                  10      0.20%      0.20% # Class of executed instruction
system.cpu05.op_class::IntAlu                    3177     63.63%     63.83% # Class of executed instruction
system.cpu05.op_class::IntMult                      1      0.02%     63.85% # Class of executed instruction
system.cpu05.op_class::IntDiv                       2      0.04%     63.89% # Class of executed instruction
system.cpu05.op_class::FloatAdd                     0      0.00%     63.89% # Class of executed instruction
system.cpu05.op_class::FloatCmp                     0      0.00%     63.89% # Class of executed instruction
system.cpu05.op_class::FloatCvt                     0      0.00%     63.89% # Class of executed instruction
system.cpu05.op_class::FloatMult                    0      0.00%     63.89% # Class of executed instruction
system.cpu05.op_class::FloatMultAcc                 0      0.00%     63.89% # Class of executed instruction
system.cpu05.op_class::FloatDiv                     0      0.00%     63.89% # Class of executed instruction
system.cpu05.op_class::FloatMisc                    0      0.00%     63.89% # Class of executed instruction
system.cpu05.op_class::FloatSqrt                    0      0.00%     63.89% # Class of executed instruction
system.cpu05.op_class::SimdAdd                      0      0.00%     63.89% # Class of executed instruction
system.cpu05.op_class::SimdAddAcc                   0      0.00%     63.89% # Class of executed instruction
system.cpu05.op_class::SimdAlu                      0      0.00%     63.89% # Class of executed instruction
system.cpu05.op_class::SimdCmp                      0      0.00%     63.89% # Class of executed instruction
system.cpu05.op_class::SimdCvt                      0      0.00%     63.89% # Class of executed instruction
system.cpu05.op_class::SimdMisc                     0      0.00%     63.89% # Class of executed instruction
system.cpu05.op_class::SimdMult                     0      0.00%     63.89% # Class of executed instruction
system.cpu05.op_class::SimdMultAcc                  0      0.00%     63.89% # Class of executed instruction
system.cpu05.op_class::SimdShift                    0      0.00%     63.89% # Class of executed instruction
system.cpu05.op_class::SimdShiftAcc                 0      0.00%     63.89% # Class of executed instruction
system.cpu05.op_class::SimdSqrt                     0      0.00%     63.89% # Class of executed instruction
system.cpu05.op_class::SimdFloatAdd                 0      0.00%     63.89% # Class of executed instruction
system.cpu05.op_class::SimdFloatAlu                 0      0.00%     63.89% # Class of executed instruction
system.cpu05.op_class::SimdFloatCmp                 0      0.00%     63.89% # Class of executed instruction
system.cpu05.op_class::SimdFloatCvt                 0      0.00%     63.89% # Class of executed instruction
system.cpu05.op_class::SimdFloatDiv                 0      0.00%     63.89% # Class of executed instruction
system.cpu05.op_class::SimdFloatMisc                0      0.00%     63.89% # Class of executed instruction
system.cpu05.op_class::SimdFloatMult                0      0.00%     63.89% # Class of executed instruction
system.cpu05.op_class::SimdFloatMultAcc             0      0.00%     63.89% # Class of executed instruction
system.cpu05.op_class::SimdFloatSqrt                0      0.00%     63.89% # Class of executed instruction
system.cpu05.op_class::SimdAes                      0      0.00%     63.89% # Class of executed instruction
system.cpu05.op_class::SimdAesMix                   0      0.00%     63.89% # Class of executed instruction
system.cpu05.op_class::SimdSha1Hash                 0      0.00%     63.89% # Class of executed instruction
system.cpu05.op_class::SimdSha1Hash2                0      0.00%     63.89% # Class of executed instruction
system.cpu05.op_class::SimdSha256Hash               0      0.00%     63.89% # Class of executed instruction
system.cpu05.op_class::SimdSha256Hash2              0      0.00%     63.89% # Class of executed instruction
system.cpu05.op_class::SimdShaSigma2                0      0.00%     63.89% # Class of executed instruction
system.cpu05.op_class::SimdShaSigma3                0      0.00%     63.89% # Class of executed instruction
system.cpu05.op_class::MemRead                   1223     24.49%     88.38% # Class of executed instruction
system.cpu05.op_class::MemWrite                   568     11.38%     99.76% # Class of executed instruction
system.cpu05.op_class::FloatMemRead                 0      0.00%     99.76% # Class of executed instruction
system.cpu05.op_class::FloatMemWrite               12      0.24%    100.00% # Class of executed instruction
system.cpu05.op_class::IprAccess                    0      0.00%    100.00% # Class of executed instruction
system.cpu05.op_class::InstPrefetch                 0      0.00%    100.00% # Class of executed instruction
system.cpu05.op_class::total                     4993                       # Class of executed instruction
system.cpu05.pwrStateClkGateDist::samples            1                       # Distribution of time spent in the clock gated state
system.cpu05.pwrStateClkGateDist::mean      117324000                       # Distribution of time spent in the clock gated state
system.cpu05.pwrStateClkGateDist::1000-5e+10            1    100.00%    100.00% # Distribution of time spent in the clock gated state
system.cpu05.pwrStateClkGateDist::min_value    117324000                       # Distribution of time spent in the clock gated state
system.cpu05.pwrStateClkGateDist::max_value    117324000                       # Distribution of time spent in the clock gated state
system.cpu05.pwrStateClkGateDist::total             1                       # Distribution of time spent in the clock gated state
system.cpu05.pwrStateResidencyTicks::ON     680254000                       # Cumulative time (in ticks) in various power states
system.cpu05.pwrStateResidencyTicks::CLK_GATED    117324000                       # Cumulative time (in ticks) in various power states
system.cpu06.Branches                             922                       # Number of branches fetched
system.cpu06.committedInsts                      4874                       # Number of instructions committed
system.cpu06.committedOps                        4880                       # Number of ops (including micro ops) committed
system.cpu06.dtb.accesses                           0                       # DTB accesses
system.cpu06.dtb.hits                               0                       # DTB hits
system.cpu06.dtb.misses                             0                       # DTB misses
system.cpu06.dtb.pwrStateResidencyTicks::UNDEFINED    797578000                       # Cumulative time (in ticks) in various power states
system.cpu06.dtb.read_accesses                      0                       # DTB read accesses
system.cpu06.dtb.read_hits                          0                       # DTB read hits
system.cpu06.dtb.read_misses                        0                       # DTB read misses
system.cpu06.dtb.write_accesses                     0                       # DTB write accesses
system.cpu06.dtb.write_hits                         0                       # DTB write hits
system.cpu06.dtb.write_misses                       0                       # DTB write misses
system.cpu06.idle_fraction                   0.985052                       # Percentage of idle cycles
system.cpu06.itb.accesses                           0                       # DTB accesses
system.cpu06.itb.hits                               0                       # DTB hits
system.cpu06.itb.misses                             0                       # DTB misses
system.cpu06.itb.pwrStateResidencyTicks::UNDEFINED    797578000                       # Cumulative time (in ticks) in various power states
system.cpu06.itb.read_accesses                      0                       # DTB read accesses
system.cpu06.itb.read_hits                          0                       # DTB read hits
system.cpu06.itb.read_misses                        0                       # DTB read misses
system.cpu06.itb.write_accesses                     0                       # DTB write accesses
system.cpu06.itb.write_hits                         0                       # DTB write hits
system.cpu06.itb.write_misses                       0                       # DTB write misses
system.cpu06.not_idle_fraction               0.014948                       # Percentage of non-idle cycles
system.cpu06.numCycles                        1595155                       # number of cpu cycles simulated
system.cpu06.numPwrStateTransitions                 2                       # Number of power state transitions
system.cpu06.numWorkItemsCompleted                  0                       # number of work items this cpu completed
system.cpu06.numWorkItemsStarted                    0                       # number of work items this cpu started
system.cpu06.num_busy_cycles             23844.987022                       # Number of busy cycles
system.cpu06.num_conditional_control_insts          467                       # number of instructions that are conditional controls
system.cpu06.num_fp_alu_accesses                   12                       # Number of float alu accesses
system.cpu06.num_fp_insts                          12                       # number of float instructions
system.cpu06.num_fp_register_reads                 12                       # number of times the floating registers were read
system.cpu06.num_fp_register_writes                 0                       # number of times the floating registers were written
system.cpu06.num_func_calls                       455                       # number of times a function call or return occured
system.cpu06.num_idle_cycles             1571310.012978                       # Number of idle cycles
system.cpu06.num_int_alu_accesses                4778                       # Number of integer alu accesses
system.cpu06.num_int_insts                       4778                       # number of integer instructions
system.cpu06.num_int_register_reads              5511                       # number of times the integer registers were read
system.cpu06.num_int_register_writes             3548                       # number of times the integer registers were written
system.cpu06.num_load_insts                      1191                       # Number of load instructions
system.cpu06.num_mem_refs                        1763                       # number of memory refs
system.cpu06.num_store_insts                      572                       # Number of store instructions
system.cpu06.num_vec_alu_accesses                   0                       # Number of vector alu accesses
system.cpu06.num_vec_insts                          0                       # number of vector instructions
system.cpu06.num_vec_register_reads                 0                       # number of times the vector registers were read
system.cpu06.num_vec_register_writes                0                       # number of times the vector registers were written
system.cpu06.op_class::No_OpClass                  10      0.20%      0.20% # Class of executed instruction
system.cpu06.op_class::IntAlu                    3106     63.62%     63.83% # Class of executed instruction
system.cpu06.op_class::IntMult                      1      0.02%     63.85% # Class of executed instruction
system.cpu06.op_class::IntDiv                       2      0.04%     63.89% # Class of executed instruction
system.cpu06.op_class::FloatAdd                     0      0.00%     63.89% # Class of executed instruction
system.cpu06.op_class::FloatCmp                     0      0.00%     63.89% # Class of executed instruction
system.cpu06.op_class::FloatCvt                     0      0.00%     63.89% # Class of executed instruction
system.cpu06.op_class::FloatMult                    0      0.00%     63.89% # Class of executed instruction
system.cpu06.op_class::FloatMultAcc                 0      0.00%     63.89% # Class of executed instruction
system.cpu06.op_class::FloatDiv                     0      0.00%     63.89% # Class of executed instruction
system.cpu06.op_class::FloatMisc                    0      0.00%     63.89% # Class of executed instruction
system.cpu06.op_class::FloatSqrt                    0      0.00%     63.89% # Class of executed instruction
system.cpu06.op_class::SimdAdd                      0      0.00%     63.89% # Class of executed instruction
system.cpu06.op_class::SimdAddAcc                   0      0.00%     63.89% # Class of executed instruction
system.cpu06.op_class::SimdAlu                      0      0.00%     63.89% # Class of executed instruction
system.cpu06.op_class::SimdCmp                      0      0.00%     63.89% # Class of executed instruction
system.cpu06.op_class::SimdCvt                      0      0.00%     63.89% # Class of executed instruction
system.cpu06.op_class::SimdMisc                     0      0.00%     63.89% # Class of executed instruction
system.cpu06.op_class::SimdMult                     0      0.00%     63.89% # Class of executed instruction
system.cpu06.op_class::SimdMultAcc                  0      0.00%     63.89% # Class of executed instruction
system.cpu06.op_class::SimdShift                    0      0.00%     63.89% # Class of executed instruction
system.cpu06.op_class::SimdShiftAcc                 0      0.00%     63.89% # Class of executed instruction
system.cpu06.op_class::SimdSqrt                     0      0.00%     63.89% # Class of executed instruction
system.cpu06.op_class::SimdFloatAdd                 0      0.00%     63.89% # Class of executed instruction
system.cpu06.op_class::SimdFloatAlu                 0      0.00%     63.89% # Class of executed instruction
system.cpu06.op_class::SimdFloatCmp                 0      0.00%     63.89% # Class of executed instruction
system.cpu06.op_class::SimdFloatCvt                 0      0.00%     63.89% # Class of executed instruction
system.cpu06.op_class::SimdFloatDiv                 0      0.00%     63.89% # Class of executed instruction
system.cpu06.op_class::SimdFloatMisc                0      0.00%     63.89% # Class of executed instruction
system.cpu06.op_class::SimdFloatMult                0      0.00%     63.89% # Class of executed instruction
system.cpu06.op_class::SimdFloatMultAcc             0      0.00%     63.89% # Class of executed instruction
system.cpu06.op_class::SimdFloatSqrt                0      0.00%     63.89% # Class of executed instruction
system.cpu06.op_class::SimdAes                      0      0.00%     63.89% # Class of executed instruction
system.cpu06.op_class::SimdAesMix                   0      0.00%     63.89% # Class of executed instruction
system.cpu06.op_class::SimdSha1Hash                 0      0.00%     63.89% # Class of executed instruction
system.cpu06.op_class::SimdSha1Hash2                0      0.00%     63.89% # Class of executed instruction
system.cpu06.op_class::SimdSha256Hash               0      0.00%     63.89% # Class of executed instruction
system.cpu06.op_class::SimdSha256Hash2              0      0.00%     63.89% # Class of executed instruction
system.cpu06.op_class::SimdShaSigma2                0      0.00%     63.89% # Class of executed instruction
system.cpu06.op_class::SimdShaSigma3                0      0.00%     63.89% # Class of executed instruction
system.cpu06.op_class::MemRead                   1195     24.48%     88.37% # Class of executed instruction
system.cpu06.op_class::MemWrite                   556     11.39%     99.75% # Class of executed instruction
system.cpu06.op_class::FloatMemRead                 0      0.00%     99.75% # Class of executed instruction
system.cpu06.op_class::FloatMemWrite               12      0.25%    100.00% # Class of executed instruction
system.cpu06.op_class::IprAccess                    0      0.00%    100.00% # Class of executed instruction
system.cpu06.op_class::InstPrefetch                 0      0.00%    100.00% # Class of executed instruction
system.cpu06.op_class::total                     4882                       # Class of executed instruction
system.cpu06.pwrStateClkGateDist::samples            1                       # Distribution of time spent in the clock gated state
system.cpu06.pwrStateClkGateDist::mean      106336500                       # Distribution of time spent in the clock gated state
system.cpu06.pwrStateClkGateDist::1000-5e+10            1    100.00%    100.00% # Distribution of time spent in the clock gated state
system.cpu06.pwrStateClkGateDist::min_value    106336500                       # Distribution of time spent in the clock gated state
[...]
system.ruby.network.int_links39.credit_link.pwrStateResidencyTicks::UNDEFINED    797578000                       # Cumulative time (in ticks) in various power states
system.ruby.network.int_links39.network_link.pwrStateResidencyTicks::UNDEFINED    797578000                       # Cumulative time (in ticks) in various power states
system.ruby.network.int_links40.credit_link.pwrStateResidencyTicks::UNDEFINED    797578000                       # Cumulative time (in ticks) in various power states
system.ruby.network.int_links40.network_link.pwrStateResidencyTicks::UNDEFINED    797578000                       # Cumulative time (in ticks) in various power states
system.ruby.network.int_links41.credit_link.pwrStateResidencyTicks::UNDEFINED    797578000                       # Cumulative time (in ticks) in various power states
system.ruby.network.int_links41.network_link.pwrStateResidencyTicks::UNDEFINED    797578000                       # Cumulative time (in ticks) in various power states
system.ruby.network.int_links42.credit_link.pwrStateResidencyTicks::UNDEFINED    797578000                       # Cumulative time (in ticks) in various power states
system.ruby.network.int_links42.network_link.pwrStateResidencyTicks::UNDEFINED    797578000                       # Cumulative time (in ticks) in various power states
system.ruby.network.int_links43.credit_link.pwrStateResidencyTicks::UNDEFINED    797578000                       # Cumulative time (in ticks) in various power states
system.ruby.network.int_links43.network_link.pwrStateResidencyTicks::UNDEFINED    797578000                       # Cumulative time (in ticks) in various power states
system.ruby.network.int_links44.credit_link.pwrStateResidencyTicks::UNDEFINED    797578000                       # Cumulative time (in ticks) in various power states
system.ruby.network.int_links44.network_link.pwrStateResidencyTicks::UNDEFINED    797578000                       # Cumulative time (in ticks) in various power states
system.ruby.network.int_links45.credit_link.pwrStateResidencyTicks::UNDEFINED    797578000                       # Cumulative time (in ticks) in various power states
system.ruby.network.int_links45.network_link.pwrStateResidencyTicks::UNDEFINED    797578000                       # Cumulative time (in ticks) in various power states
system.ruby.network.int_links46.credit_link.pwrStateResidencyTicks::UNDEFINED    797578000                       # Cumulative time (in ticks) in various power states
system.ruby.network.int_links46.network_link.pwrStateResidencyTicks::UNDEFINED    797578000                       # Cumulative time (in ticks) in various power states
system.ruby.network.int_links47.credit_link.pwrStateResidencyTicks::UNDEFINED    797578000                       # Cumulative time (in ticks) in various power states
system.ruby.network.int_links47.network_link.pwrStateResidencyTicks::UNDEFINED    797578000                       # Cumulative time (in ticks) in various power states
system.ruby.network.netifs00.pwrStateResidencyTicks::UNDEFINED    797578000                       # Cumulative time (in ticks) in various power states
system.ruby.network.netifs01.pwrStateResidencyTicks::UNDEFINED    797578000                       # Cumulative time (in ticks) in various power states
system.ruby.network.netifs02.pwrStateResidencyTicks::UNDEFINED    797578000                       # Cumulative time (in ticks) in various power states
system.ruby.network.netifs03.pwrStateResidencyTicks::UNDEFINED    797578000                       # Cumulative time (in ticks) in various power states
system.ruby.network.netifs04.pwrStateResidencyTicks::UNDEFINED    797578000                       # Cumulative time (in ticks) in various power states
system.ruby.network.netifs05.pwrStateResidencyTicks::UNDEFINED    797578000                       # Cumulative time (in ticks) in various power states
system.ruby.network.netifs06.pwrStateResidencyTicks::UNDEFINED    797578000                       # Cumulative time (in ticks) in various power states
system.ruby.network.netifs07.pwrStateResidencyTicks::UNDEFINED    797578000                       # Cumulative time (in ticks) in various power states
system.ruby.network.netifs08.pwrStateResidencyTicks::UNDEFINED    797578000                       # Cumulative time (in ticks) in various power states
system.ruby.network.netifs09.pwrStateResidencyTicks::UNDEFINED    797578000                       # Cumulative time (in ticks) in various power states
system.ruby.network.netifs10.pwrStateResidencyTicks::UNDEFINED    797578000                       # Cumulative time (in ticks) in various power states
system.ruby.network.netifs11.pwrStateResidencyTicks::UNDEFINED    797578000                       # Cumulative time (in ticks) in various power states
system.ruby.network.netifs12.pwrStateResidencyTicks::UNDEFINED    797578000                       # Cumulative time (in ticks) in various power states
system.ruby.network.netifs13.pwrStateResidencyTicks::UNDEFINED    797578000                       # Cumulative time (in ticks) in various power states
system.ruby.network.netifs14.pwrStateResidencyTicks::UNDEFINED    797578000                       # Cumulative time (in ticks) in various power states
system.ruby.network.netifs15.pwrStateResidencyTicks::UNDEFINED    797578000                       # Cumulative time (in ticks) in various power states
system.ruby.network.netifs16.pwrStateResidencyTicks::UNDEFINED    797578000                       # Cumulative time (in ticks) in various power states
system.ruby.network.netifs17.pwrStateResidencyTicks::UNDEFINED    797578000                       # Cumulative time (in ticks) in various power states
system.ruby.network.netifs18.pwrStateResidencyTicks::UNDEFINED    797578000                       # Cumulative time (in ticks) in various power states
system.ruby.network.netifs19.pwrStateResidencyTicks::UNDEFINED    797578000                       # Cumulative time (in ticks) in various power states
system.ruby.network.netifs20.pwrStateResidencyTicks::UNDEFINED    797578000                       # Cumulative time (in ticks) in various power states
system.ruby.network.netifs21.pwrStateResidencyTicks::UNDEFINED    797578000                       # Cumulative time (in ticks) in various power states
system.ruby.network.netifs22.pwrStateResidencyTicks::UNDEFINED    797578000                       # Cumulative time (in ticks) in various power states
system.ruby.network.netifs23.pwrStateResidencyTicks::UNDEFINED    797578000                       # Cumulative time (in ticks) in various power states
system.ruby.network.netifs24.pwrStateResidencyTicks::UNDEFINED    797578000                       # Cumulative time (in ticks) in various power states
system.ruby.network.netifs25.pwrStateResidencyTicks::UNDEFINED    797578000                       # Cumulative time (in ticks) in various power states
system.ruby.network.netifs26.pwrStateResidencyTicks::UNDEFINED    797578000                       # Cumulative time (in ticks) in various power states
system.ruby.network.netifs27.pwrStateResidencyTicks::UNDEFINED    797578000                       # Cumulative time (in ticks) in various power states
system.ruby.network.netifs28.pwrStateResidencyTicks::UNDEFINED    797578000                       # Cumulative time (in ticks) in various power states
system.ruby.network.netifs29.pwrStateResidencyTicks::UNDEFINED    797578000                       # Cumulative time (in ticks) in various power states
system.ruby.network.netifs30.pwrStateResidencyTicks::UNDEFINED    797578000                       # Cumulative time (in ticks) in various power states
system.ruby.network.netifs31.pwrStateResidencyTicks::UNDEFINED    797578000                       # Cumulative time (in ticks) in various power states
system.ruby.network.netifs32.pwrStateResidencyTicks::UNDEFINED    797578000                       # Cumulative time (in ticks) in various power states
system.ruby.network.netifs33.pwrStateResidencyTicks::UNDEFINED    797578000                       # Cumulative time (in ticks) in various power states
system.ruby.network.netifs34.pwrStateResidencyTicks::UNDEFINED    797578000                       # Cumulative time (in ticks) in various power states
system.ruby.network.netifs35.pwrStateResidencyTicks::UNDEFINED    797578000                       # Cumulative time (in ticks) in various power states
system.ruby.network.packet_network_latency |      568618                       |      604895                       |      152685                      
system.ruby.network.packet_queueing_latency |      184802                       |       31699                       |        6670                      
system.ruby.network.packets_injected     |       19468     42.66%     42.66% |       19674     43.11%     85.77% |        6496     14.23%    100.00%
system.ruby.network.packets_injected::total        45638                      
system.ruby.network.packets_received     |       19468     42.66%     42.66% |       19674     43.11%     85.77% |        6496     14.23%    100.00%
system.ruby.network.packets_received::total        45638                      
system.ruby.network.pwrStateResidencyTicks::UNDEFINED    797578000                       # Cumulative time (in ticks) in various power states
system.ruby.network.routers00.buffer_reads        92996                      
system.ruby.network.routers00.buffer_writes        92996                      
system.ruby.network.routers00.crossbar_activity        92996                      
system.ruby.network.routers00.pwrStateResidencyTicks::UNDEFINED    797578000                       # Cumulative time (in ticks) in various power states
system.ruby.network.routers00.sw_input_arbiter_activity        93010                      
system.ruby.network.routers00.sw_output_arbiter_activity        92996                      
system.ruby.network.routers01.buffer_reads        39393                      
system.ruby.network.routers01.buffer_writes        39393                      
system.ruby.network.routers01.crossbar_activity        39393                      
system.ruby.network.routers01.pwrStateResidencyTicks::UNDEFINED    797578000                       # Cumulative time (in ticks) in various power states
system.ruby.network.routers01.sw_input_arbiter_activity        39401                      
system.ruby.network.routers01.sw_output_arbiter_activity        39393                      
system.ruby.network.routers02.buffer_reads        26684                      
system.ruby.network.routers02.buffer_writes        26684                      
system.ruby.network.routers02.crossbar_activity        26684                      
system.ruby.network.routers02.pwrStateResidencyTicks::UNDEFINED    797578000                       # Cumulative time (in ticks) in various power states
system.ruby.network.routers02.sw_input_arbiter_activity        26703                      
system.ruby.network.routers02.sw_output_arbiter_activity        26684                      
system.ruby.network.routers03.buffer_reads        15992                      
system.ruby.network.routers03.buffer_writes        15992                      
system.ruby.network.routers03.crossbar_activity        15992                      
system.ruby.network.routers03.pwrStateResidencyTicks::UNDEFINED    797578000                       # Cumulative time (in ticks) in various power states
system.ruby.network.routers03.sw_input_arbiter_activity        15998                      
system.ruby.network.routers03.sw_output_arbiter_activity        15992                      
system.ruby.network.routers04.buffer_reads        54084                      
system.ruby.network.routers04.buffer_writes        54084                      
system.ruby.network.routers04.crossbar_activity        54084                      
system.ruby.network.routers04.pwrStateResidencyTicks::UNDEFINED    797578000                       # Cumulative time (in ticks) in various power states
system.ruby.network.routers04.sw_input_arbiter_activity        54091                      
system.ruby.network.routers04.sw_output_arbiter_activity        54084                      
system.ruby.network.routers05.buffer_reads        20072                      
system.ruby.network.routers05.buffer_writes        20072                      
system.ruby.network.routers05.crossbar_activity        20072                      
system.ruby.network.routers05.pwrStateResidencyTicks::UNDEFINED    797578000                       # Cumulative time (in ticks) in various power states
system.ruby.network.routers05.sw_input_arbiter_activity        20075                      
system.ruby.network.routers05.sw_output_arbiter_activity        20072                      
system.ruby.network.routers06.buffer_reads        14918                      
system.ruby.network.routers06.buffer_writes        14918                      
system.ruby.network.routers06.crossbar_activity        14918                      
system.ruby.network.routers06.pwrStateResidencyTicks::UNDEFINED    797578000                       # Cumulative time (in ticks) in various power states
system.ruby.network.routers06.sw_input_arbiter_activity        14921                      
system.ruby.network.routers06.sw_output_arbiter_activity        14918                      
system.ruby.network.routers07.buffer_reads        12184                      
system.ruby.network.routers07.buffer_writes        12184                      
system.ruby.network.routers07.crossbar_activity        12184                      
system.ruby.network.routers07.pwrStateResidencyTicks::UNDEFINED    797578000                       # Cumulative time (in ticks) in various power states
system.ruby.network.routers07.sw_input_arbiter_activity        12190                      
system.ruby.network.routers07.sw_output_arbiter_activity        12184                      
system.ruby.network.routers08.buffer_reads        36685                      
system.ruby.network.routers08.buffer_writes        36685                      
system.ruby.network.routers08.crossbar_activity        36685                      
system.ruby.network.routers08.pwrStateResidencyTicks::UNDEFINED    797578000                       # Cumulative time (in ticks) in various power states
system.ruby.network.routers08.sw_input_arbiter_activity        36690                      
system.ruby.network.routers08.sw_output_arbiter_activity        36685                      
system.ruby.network.routers09.buffer_reads        18083                      
system.ruby.network.routers09.buffer_writes        18083                      
system.ruby.network.routers09.crossbar_activity        18083                      
system.ruby.network.routers09.pwrStateResidencyTicks::UNDEFINED    797578000                       # Cumulative time (in ticks) in various power states
system.ruby.network.routers09.sw_input_arbiter_activity        18091                      
system.ruby.network.routers09.sw_output_arbiter_activity        18083                      
system.ruby.network.routers10.buffer_reads        17235                      
system.ruby.network.routers10.buffer_writes        17235                      
system.ruby.network.routers10.crossbar_activity        17235                      
system.ruby.network.routers10.pwrStateResidencyTicks::UNDEFINED    797578000                       # Cumulative time (in ticks) in various power states
system.ruby.network.routers10.sw_input_arbiter_activity        17240                      
system.ruby.network.routers10.sw_output_arbiter_activity        17235                      
system.ruby.network.routers11.buffer_reads        13144                      
system.ruby.network.routers11.buffer_writes        13144                      
system.ruby.network.routers11.crossbar_activity        13144                      
system.ruby.network.routers11.pwrStateResidencyTicks::UNDEFINED    797578000                       # Cumulative time (in ticks) in various power states
system.ruby.network.routers11.sw_input_arbiter_activity        13152                      
system.ruby.network.routers11.sw_output_arbiter_activity        13144                      
system.ruby.network.routers12.buffer_reads        24515                      
system.ruby.network.routers12.buffer_writes        24515                      
system.ruby.network.routers12.crossbar_activity        24515                      
system.ruby.network.routers12.pwrStateResidencyTicks::UNDEFINED    797578000                       # Cumulative time (in ticks) in various power states
system.ruby.network.routers12.sw_input_arbiter_activity        24518                      
system.ruby.network.routers12.sw_output_arbiter_activity        24515                      
system.ruby.network.routers13.buffer_reads        19410                      
system.ruby.network.routers13.buffer_writes        19410                      
system.ruby.network.routers13.crossbar_activity        19410                      
system.ruby.network.routers13.pwrStateResidencyTicks::UNDEFINED    797578000                       # Cumulative time (in ticks) in various power states
system.ruby.network.routers13.sw_input_arbiter_activity        19417                      
system.ruby.network.routers13.sw_output_arbiter_activity        19410                      
system.ruby.network.routers14.buffer_reads        15516                      
system.ruby.network.routers14.buffer_writes        15516                      
system.ruby.network.routers14.crossbar_activity        15516                      
system.ruby.network.routers14.pwrStateResidencyTicks::UNDEFINED    797578000                       # Cumulative time (in ticks) in various power states
system.ruby.network.routers14.sw_input_arbiter_activity        15523                      
system.ruby.network.routers14.sw_output_arbiter_activity        15516                      
system.ruby.network.routers15.buffer_reads        11655                      
system.ruby.network.routers15.buffer_writes        11655                      
system.ruby.network.routers15.crossbar_activity        11655                      
system.ruby.network.routers15.pwrStateResidencyTicks::UNDEFINED    797578000                       # Cumulative time (in ticks) in various power states
system.ruby.network.routers15.sw_input_arbiter_activity        11670                      
system.ruby.network.routers15.sw_output_arbiter_activity        11655                      
system.ruby.outstanding_req_hist_seqr::bucket_size            1                      
system.ruby.outstanding_req_hist_seqr::max_bucket            9                      
system.ruby.outstanding_req_hist_seqr::samples       262207                      
system.ruby.outstanding_req_hist_seqr::mean            1                      
system.ruby.outstanding_req_hist_seqr::gmean            1                      
system.ruby.outstanding_req_hist_seqr    |           0      0.00%      0.00% |      262207    100.00%    100.00% |           0      0.00%    100.00% |           0      0.00%    100.00% |           0      0.00%    100.00% |           0      0.00%    100.00% |           0      0.00%    100.00% |           0      0.00%    100.00% |           0      0.00%    100.00% |           0      0.00%    100.00%
system.ruby.outstanding_req_hist_seqr::total       262207                      
system.ruby.pwrStateResidencyTicks::UNDEFINED    797578000                       # Cumulative time (in ticks) in various power states
system.sys_port_proxy.pwrStateResidencyTicks::UNDEFINED    797578000                       # Cumulative time (in ticks) in various power states
system.voltage_domain.voltage                       1                       # Voltage in Volts

---------- End Simulation Statistics   ----------
