
---------- Begin Simulation Statistics ----------
final_tick                                  533110000                       # Number of ticks from beginning of simulation (restored from checkpoints and never reset)
host_inst_rate                                  16678                       # Simulator instruction rate (inst/s)
host_mem_usage                                5159340                       # Number of bytes of host memory used
host_op_rate                                    16729                       # Simulator op (including micro ops) rate (op/s)
host_seconds                                     7.49                       # Real time elapsed on the host
host_tick_rate                               71138686                       # Simulator tick rate (ticks/s)
sim_freq                                 1000000000000                       # Frequency of simulated ticks
sim_insts                                      124982                       # Number of instructions simulated
sim_ops                                        125364                       # Number of ops (including micro ops) simulated
sim_seconds                                  0.000533                       # Number of seconds simulated
sim_ticks                                   533110000                       # Number of ticks simulated
system.clk_domain.clock                          1000                       # Clock period in ticks
system.cpu00.Branches                           22342                       # Number of branches fetched
system.cpu00.committedInsts                    100000                       # Number of instructions committed
system.cpu00.committedOps                      100293                       # Number of ops (including micro ops) committed
system.cpu00.dtb.accesses                           0                       # DTB accesses
system.cpu00.dtb.hits                               0                       # DTB hits
system.cpu00.dtb.misses                             0                       # DTB misses
system.cpu00.dtb.pwrStateResidencyTicks::UNDEFINED    533110000                       # Cumulative time (in ticks) in various power states
system.cpu00.dtb.read_accesses                      0                       # DTB read accesses
system.cpu00.dtb.read_hits                          0                       # DTB read hits
system.cpu00.dtb.read_misses                        0                       # DTB read misses
system.cpu00.dtb.write_accesses                     0                       # DTB write accesses
system.cpu00.dtb.write_hits                         0                       # DTB write hits
system.cpu00.dtb.write_misses                       0                       # DTB write misses
system.cpu00.idle_fraction                   0.003279                       # Percentage of idle cycles
system.cpu00.itb.accesses                           0                       # DTB accesses
system.cpu00.itb.hits                               0                       # DTB hits
system.cpu00.itb.misses                             0                       # DTB misses
system.cpu00.itb.pwrStateResidencyTicks::UNDEFINED    533110000                       # Cumulative time (in ticks) in various power states
system.cpu00.itb.read_accesses                      0                       # DTB read accesses
system.cpu00.itb.read_hits                          0                       # DTB read hits
system.cpu00.itb.read_misses                        0                       # DTB read misses
system.cpu00.itb.write_accesses                     0                       # DTB write accesses
system.cpu00.itb.write_hits                         0                       # DTB write hits
system.cpu00.itb.write_misses                       0                       # DTB write misses
system.cpu00.not_idle_fraction               0.996721                       # Percentage of non-idle cycles
system.cpu00.numCycles                        1066220                       # number of cpu cycles simulated
system.cpu00.numPwrStateTransitions                 2                       # Number of power state transitions
system.cpu00.numWorkItemsCompleted                  0                       # number of work items this cpu completed
system.cpu00.numWorkItemsStarted                    0                       # number of work items this cpu started
system.cpu00.num_busy_cycles             1062724.000007                       # Number of busy cycles
system.cpu00.num_conditional_control_insts        15919                       # number of instructions that are conditional controls
system.cpu00.num_fp_alu_accesses                   12                       # Number of float alu accesses
system.cpu00.num_fp_insts                          12                       # number of float instructions
system.cpu00.num_fp_register_reads                 12                       # number of times the floating registers were read
system.cpu00.num_fp_register_writes                 0                       # number of times the floating registers were written
system.cpu00.num_func_calls                      6423                       # number of times a function call or return occured
system.cpu00.num_idle_cycles              3495.999993                       # Number of idle cycles
system.cpu00.num_int_alu_accesses               98832                       # Number of integer alu accesses
system.cpu00.num_int_insts                      98832                       # number of integer instructions
system.cpu00.num_int_register_reads            120830                       # number of times the integer registers were read
system.cpu00.num_int_register_writes            64476                       # number of times the integer registers were written
system.cpu00.num_load_insts                     20289                       # Number of load instructions
system.cpu00.num_mem_refs                       36557                       # number of memory refs
system.cpu00.num_store_insts                    16268                       # Number of store instructions
system.cpu00.num_vec_alu_accesses                   0                       # Number of vector alu accesses
system.cpu00.num_vec_insts                          0                       # number of vector instructions
system.cpu00.num_vec_register_reads                 0                       # number of times the vector registers were read
system.cpu00.num_vec_register_writes                0                       # number of times the vector registers were written
system.cpu00.op_class::No_OpClass                 859      0.86%      0.86% # Class of executed instruction
system.cpu00.op_class::IntAlu                   62913     62.68%     63.54% # Class of executed instruction
system.cpu00.op_class::IntMult                     30      0.03%     63.57% # Class of executed instruction
system.cpu00.op_class::IntDiv                       6      0.01%     63.58% # Class of executed instruction
system.cpu00.op_class::FloatAdd                     0      0.00%     63.58% # Class of executed instruction
system.cpu00.op_class::FloatCmp                     0      0.00%     63.58% # Class of executed instruction
system.cpu00.op_class::FloatCvt                     0      0.00%     63.58% # Class of executed instruction
system.cpu00.op_class::FloatMult                    0      0.00%     63.58% # Class of executed instruction
system.cpu00.op_class::FloatMultAcc                 0      0.00%     63.58% # Class of executed instruction
system.cpu00.op_class::FloatDiv                     0      0.00%     63.58% # Class of executed instruction
system.cpu00.op_class::FloatMisc                    0      0.00%     63.58% # Class of executed instruction
system.cpu00.op_class::FloatSqrt                    0      0.00%     63.58% # Class of executed instruction
system.cpu00.op_class::SimdAdd                      0      0.00%     63.58% # Class of executed instruction
system.cpu00.op_class::SimdAddAcc                   0      0.00%     63.58% # Class of executed instruction
system.cpu00.op_class::SimdAlu                      0      0.00%     63.58% # Class of executed instruction
system.cpu00.op_class::SimdCmp                      0      0.00%     63.58% # Class of executed instruction
system.cpu00.op_class::SimdCvt                      0      0.00%     63.58% # Class of executed instruction
system.cpu00.op_class::SimdMisc                     0      0.00%     63.58% # Class of executed instruction
system.cpu00.op_class::SimdMult                     0      0.00%     63.58% # Class of executed instruction
system.cpu00.op_class::SimdMultAcc                  0      0.00%     63.58% # Class of executed instruction
system.cpu00.op_class::SimdShift                    0      0.00%     63.58% # Class of executed instruction
system.cpu00.op_class::SimdShiftAcc                 0      0.00%     63.58% # Class of executed instruction
system.cpu00.op_class::SimdSqrt                     0      0.00%     63.58% # Class of executed instruction
system.cpu00.op_class::SimdFloatAdd                 0      0.00%     63.58% # Class of executed instruction
system.cpu00.op_class::SimdFloatAlu                 0      0.00%     63.58% # Class of executed instruction
system.cpu00.op_class::SimdFloatCmp                 0      0.00%     63.58% # Class of executed instruction
system.cpu00.op_class::SimdFloatCvt                 0      0.00%     63.58% # Class of executed instruction
system.cpu00.op_class::SimdFloatDiv                 0      0.00%     63.58% # Class of executed instruction
system.cpu00.op_class::SimdFloatMisc                0      0.00%     63.58% # Class of executed instruction
system.cpu00.op_class::SimdFloatMult                0      0.00%     63.58% # Class of executed instruction
system.cpu00.op_class::SimdFloatMultAcc             0      0.00%     63.58% # Class of executed instruction
system.cpu00.op_class::SimdFloatSqrt                0      0.00%     63.58% # Class of executed instruction
system.cpu00.op_class::SimdAes                      0      0.00%     63.58% # Class of executed instruction
system.cpu00.op_class::SimdAesMix                   0      0.00%     63.58% # Class of executed instruction
system.cpu00.op_class::SimdSha1Hash                 0      0.00%     63.58% # Class of executed instruction
system.cpu00.op_class::SimdSha1Hash2                0      0.00%     63.58% # Class of executed instruction
system.cpu00.op_class::SimdSha256Hash               0      0.00%     63.58% # Class of executed instruction
system.cpu00.op_class::SimdSha256Hash2              0      0.00%     63.58% # Class of executed instruction
system.cpu00.op_class::SimdShaSigma2                0      0.00%     63.58% # Class of executed instruction
system.cpu00.op_class::SimdShaSigma3                0      0.00%     63.58% # Class of executed instruction
system.cpu00.op_class::MemRead                  20574     20.50%     84.08% # Class of executed instruction
system.cpu00.op_class::MemWrite                 15971     15.91%     99.99% # Class of executed instruction
system.cpu00.op_class::FloatMemRead                 0      0.00%     99.99% # Class of executed instruction
system.cpu00.op_class::FloatMemWrite               12      0.01%    100.00% # Class of executed instruction
system.cpu00.op_class::IprAccess                    0      0.00%    100.00% # Class of executed instruction
system.cpu00.op_class::InstPrefetch                 0      0.00%    100.00% # Class of executed instruction
system.cpu00.op_class::total                   100365                       # Class of executed instruction
system.cpu00.pwrStateClkGateDist::samples            1                       # Distribution of time spent in the clock gated state
system.cpu00.pwrStateClkGateDist::mean        1748000                       # Distribution of time spent in the clock gated state
system.cpu00.pwrStateClkGateDist::1000-5e+10            1    100.00%    100.00% # Distribution of time spent in the clock gated state
system.cpu00.pwrStateClkGateDist::min_value      1748000                       # Distribution of time spent in the clock gated state
system.cpu00.pwrStateClkGateDist::max_value      1748000                       # Distribution of time spent in the clock gated state
system.cpu00.pwrStateClkGateDist::total             1                       # Distribution of time spent in the clock gated state
system.cpu00.pwrStateResidencyTicks::ON     531362000                       # Cumulative time (in ticks) in various power states
system.cpu00.pwrStateResidencyTicks::CLK_GATED      1748000                       # Cumulative time (in ticks) in various power states
system.cpu00.workload.numSyscalls                  71                       # Number of system calls
system.cpu01.Branches                             303                       # Number of branches fetched
system.cpu01.committedInsts                      1576                       # Number of instructions committed
system.cpu01.committedOps                        1582                       # Number of ops (including micro ops) committed
system.cpu01.dtb.accesses                           0                       # DTB accesses
system.cpu01.dtb.hits                               0                       # DTB hits
system.cpu01.dtb.misses                             0                       # DTB misses
system.cpu01.dtb.pwrStateResidencyTicks::UNDEFINED    533110000                       # Cumulative time (in ticks) in various power states
system.cpu01.dtb.read_accesses                      0                       # DTB read accesses
system.cpu01.dtb.read_hits                          0                       # DTB read hits
system.cpu01.dtb.read_misses                        0                       # DTB read misses
system.cpu01.dtb.write_accesses                     0                       # DTB write accesses
system.cpu01.dtb.write_hits                         0                       # DTB write hits
system.cpu01.dtb.write_misses                       0                       # DTB write misses
system.cpu01.idle_fraction                   0.974069                       # Percentage of idle cycles
system.cpu01.itb.accesses                           0                       # DTB accesses
system.cpu01.itb.hits                               0                       # DTB hits
system.cpu01.itb.misses                             0                       # DTB misses
system.cpu01.itb.pwrStateResidencyTicks::UNDEFINED    533110000                       # Cumulative time (in ticks) in various power states
system.cpu01.itb.read_accesses                      0                       # DTB read accesses
system.cpu01.itb.read_hits                          0                       # DTB read hits
system.cpu01.itb.read_misses                        0                       # DTB read misses
system.cpu01.itb.write_accesses                     0                       # DTB write accesses
system.cpu01.itb.write_hits                         0                       # DTB write hits
system.cpu01.itb.write_misses                       0                       # DTB write misses
system.cpu01.not_idle_fraction               0.025931                       # Percentage of non-idle cycles
system.cpu01.numCycles                        1066142                       # number of cpu cycles simulated
system.cpu01.numPwrStateTransitions                 2                       # Number of power state transitions
system.cpu01.numWorkItemsCompleted                  0                       # number of work items this cpu completed
system.cpu01.numWorkItemsStarted                    0                       # number of work items this cpu started
system.cpu01.num_busy_cycles             27645.979341                       # Number of busy cycles
system.cpu01.num_conditional_control_insts          159                       # number of instructions that are conditional controls
system.cpu01.num_fp_alu_accesses                   12                       # Number of float alu accesses
system.cpu01.num_fp_insts                          12                       # number of float instructions
system.cpu01.num_fp_register_reads                 12                       # number of times the floating registers were read
system.cpu01.num_fp_register_writes                 0                       # number of times the floating registers were written
system.cpu01.num_func_calls                       144                       # number of times a function call or return occured
system.cpu01.num_idle_cycles             1038496.020659                       # Number of idle cycles
system.cpu01.num_int_alu_accesses                1550                       # Number of integer alu accesses
system.cpu01.num_int_insts                       1550                       # number of integer instructions
system.cpu01.num_int_register_reads              1803                       # number of times the integer registers were read
system.cpu01.num_int_register_writes             1109                       # number of times the integer registers were written
system.cpu01.num_load_insts                       368                       # Number of load instructions
system.cpu01.num_mem_refs                         597                       # number of memory refs
system.cpu01.num_store_insts                      229                       # Number of store instructions
system.cpu01.num_vec_alu_accesses                   0                       # Number of vector alu accesses
system.cpu01.num_vec_insts                          0                       # number of vector instructions
system.cpu01.num_vec_register_reads                 0                       # number of times the vector registers were read
system.cpu01.num_vec_register_writes                0                       # number of times the vector registers were written
system.cpu01.op_class::No_OpClass                  10      0.63%      0.63% # Class of executed instruction
system.cpu01.op_class::IntAlu                     974     61.49%     62.12% # Class of executed instruction
system.cpu01.op_class::IntMult                      1      0.06%     62.18% # Class of executed instruction
system.cpu01.op_class::IntDiv                       2      0.13%     62.31% # Class of executed instruction
system.cpu01.op_class::FloatAdd                     0      0.00%     62.31% # Class of executed instruction
system.cpu01.op_class::FloatCmp                     0      0.00%     62.31% # Class of executed instruction
system.cpu01.op_class::FloatCvt                     0      0.00%     62.31% # Class of executed instruction
system.cpu01.op_class::FloatMult                    0      0.00%     62.31% # Class of executed instruction
system.cpu01.op_class::FloatMultAcc                 0      0.00%     62.31% # Class of executed instruction
system.cpu01.op_class::FloatDiv                     0      0.00%     62.31% # Class of executed instruction
system.cpu01.op_class::FloatMisc                    0      0.00%     62.31% # Class of executed instruction
system.cpu01.op_class::FloatSqrt                    0      0.00%     62.31% # Class of executed instruction
system.cpu01.op_class::SimdAdd                      0      0.00%     62.31% # Class of executed instruction
system.cpu01.op_class::SimdAddAcc                   0      0.00%     62.31% # Class of executed instruction
system.cpu01.op_class::SimdAlu                      0      0.00%     62.31% # Class of executed instruction
system.cpu01.op_class::SimdCmp                      0      0.00%     62.31% # Class of executed instruction
system.cpu01.op_class::SimdCvt                      0      0.00%     62.31% # Class of executed instruction
system.cpu01.op_class::SimdMisc                     0      0.00%     62.31% # Class of executed instruction
system.cpu01.op_class::SimdMult                     0      0.00%     62.31% # Class of executed instruction
system.cpu01.op_class::SimdMultAcc                  0      0.00%     62.31% # Class of executed instruction
system.cpu01.op_class::SimdShift                    0      0.00%     62.31% # Class of executed instruction
system.cpu01.op_class::SimdShiftAcc                 0      0.00%     62.31% # Class of executed instruction
system.cpu01.op_class::SimdSqrt                     0      0.00%     62.31% # Class of executed instruction
system.cpu01.op_class::SimdFloatAdd                 0      0.00%     62.31% # Class of executed instruction
system.cpu01.op_class::SimdFloatAlu                 0      0.00%     62.31% # Class of executed instruction
system.cpu01.op_class::SimdFloatCmp                 0      0.00%     62.31% # Class of executed instruction
system.cpu01.op_class::SimdFloatCvt                 0      0.00%     62.31% # Class of executed instruction
system.cpu01.op_class::SimdFloatDiv                 0      0.00%     62.31% # Class of executed instruction
system.cpu01.op_class::SimdFloatMisc                0      0.00%     62.31% # Class of executed instruction
system.cpu01.op_class::SimdFloatMult                0      0.00%     62.31% # Class of executed instruction
system.cpu01.op_class::SimdFloatMultAcc             0      0.00%     62.31% # Class of executed instruction
system.cpu01.op_class::SimdFloatSqrt                0      0.00%     62.31% # Class of executed instruction
system.cpu01.op_class::SimdAes                      0      0.00%     62.31% # Class of executed instruction
system.cpu01.op_class::SimdAesMix                   0      0.00%     62.31% # Class of executed instruction
system.cpu01.op_class::SimdSha1Hash                 0      0.00%     62.31% # Class of executed instruction
system.cpu01.op_class::SimdSha1Hash2                0      0.00%     62.31% # Class of executed instruction
system.cpu01.op_class::SimdSha256Hash               0      0.00%     62.31% # Class of executed instruction
system.cpu01.op_class::SimdSha256Hash2              0      0.00%     62.31% # Class of executed instruction
system.cpu01.op_class::SimdShaSigma2                0      0.00%     62.31% # Class of executed instruction
system.cpu01.op_class::SimdShaSigma3                0      0.00%     62.31% # Class of executed instruction
system.cpu01.op_class::MemRead                    372     23.48%     85.80% # Class of executed instruction
system.cpu01.op_class::MemWrite                   213     13.45%     99.24% # Class of executed instruction
system.cpu01.op_class::FloatMemRead                 0      0.00%     99.24% # Class of executed instruction
system.cpu01.op_class::FloatMemWrite               12      0.76%    100.00% # Class of executed instruction
system.cpu01.op_class::IprAccess                    0      0.00%    100.00% # Class of executed instruction
system.cpu01.op_class::InstPrefetch                 0      0.00%    100.00% # Class of executed instruction
system.cpu01.op_class::total                     1584                       # Class of executed instruction
system.cpu01.pwrStateClkGateDist::samples            1                       # Distribution of time spent in the clock gated state
system.cpu01.pwrStateClkGateDist::mean      111683000                       # Distribution of time spent in the clock gated state
system.cpu01.pwrStateClkGateDist::1000-5e+10            1    100.00%    100.00% # Distribution of time spent in the clock gated state
system.cpu01.pwrStateClkGateDist::min_value    111683000                       # Distribution of time spent in the clock gated state
system.cpu01.pwrStateClkGateDist::max_value    111683000                       # Distribution of time spent in the clock gated state
system.cpu01.pwrStateClkGateDist::total             1                       # Distribution of time spent in the clock gated state
system.cpu01.pwrStateResidencyTicks::ON     421427000                       # Cumulative time (in ticks) in various power states
system.cpu01.pwrStateResidencyTicks::CLK_GATED    111683000                       # Cumulative time (in ticks) in various power states
system.cpu02.Branches                             342                       # Number of branches fetched
system.cpu02.committedInsts                      1796                       # Number of instructions committed
system.cpu02.committedOps                        1802                       # Number of ops (including micro ops) committed
system.cpu02.dtb.accesses                           0                       # DTB accesses
system.cpu02.dtb.hits                               0                       # DTB hits
system.cpu02.dtb.misses                             0                       # DTB misses
system.cpu02.dtb.pwrStateResidencyTicks::UNDEFINED    533110000                       # Cumulative time (in ticks) in various power states
system.cpu02.dtb.read_accesses                      0                       # DTB read accesses
system.cpu02.dtb.read_hits                          0                       # DTB read hits
system.cpu02.dtb.read_misses                        0                       # DTB read misses
system.cpu02.dtb.write_accesses                     0                       # DTB write accesses
system.cpu02.dtb.write_hits                         0                       # DTB write hits
system.cpu02.dtb.write_misses                       0                       # DTB write misses
system.cpu02.idle_fraction                   0.976895                       # Percentage of idle cycles
system.cpu02.itb.accesses                           0                       # DTB accesses
system.cpu02.itb.hits                               0                       # DTB hits
system.cpu02.itb.misses                             0                       # DTB misses
system.cpu02.itb.pwrStateResidencyTicks::UNDEFINED    533110000                       # Cumulative time (in ticks) in various power states
system.cpu02.itb.read_accesses                      0                       # DTB read accesses
system.cpu02.itb.read_hits                          0                       # DTB read hits
system.cpu02.itb.read_misses                        0                       # DTB read misses
system.cpu02.itb.write_accesses                     0                       # DTB write accesses
system.cpu02.itb.write_hits                         0                       # DTB write hits
system.cpu02.itb.write_misses                       0                       # DTB write misses
system.cpu02.not_idle_fraction               0.023105                       # Percentage of non-idle cycles
system.cpu02.numCycles                        1066219                       # number of cpu cycles simulated
system.cpu02.numPwrStateTransitions                 2                       # Number of power state transitions
system.cpu02.numWorkItemsCompleted                  0                       # number of work items this cpu completed
system.cpu02.numWorkItemsStarted                    0                       # number of work items this cpu started
system.cpu02.num_busy_cycles             24634.978849                       # Number of busy cycles
system.cpu02.num_conditional_control_insts          180                       # number of instructions that are conditional controls
system.cpu02.num_fp_alu_accesses                   12                       # Number of float alu accesses
system.cpu02.num_fp_insts                          12                       # number of float instructions
system.cpu02.num_fp_register_reads                 12                       # number of times the floating registers were read
system.cpu02.num_fp_register_writes                 0                       # number of times the floating registers were written
system.cpu02.num_func_calls                       162                       # number of times a function call or return occured
system.cpu02.num_idle_cycles             1041584.021151                       # Number of idle cycles
system.cpu02.num_int_alu_accesses                1768                       # Number of integer alu accesses
system.cpu02.num_int_insts                       1768                       # number of integer instructions
system.cpu02.num_int_register_reads              2051                       # number of times the integer registers were read
system.cpu02.num_int_register_writes             1274                       # number of times the integer registers were written
system.cpu02.num_load_insts                       422                       # Number of load instructions
system.cpu02.num_mem_refs                         675                       # number of memory refs
system.cpu02.num_store_insts                      253                       # Number of store instructions
system.cpu02.num_vec_alu_accesses                   0                       # Number of vector alu accesses
system.cpu02.num_vec_insts                          0                       # number of vector instructions
system.cpu02.num_vec_register_reads                 0                       # number of times the vector registers were read
system.cpu02.num_vec_register_writes                0                       # number of times the vector registers were written
system.cpu02.op_class::No_OpClass                  10      0.55%      0.55% # Class of executed instruction
system.cpu02.op_class::IntAlu                    1116     61.86%     62.42% # Class of executed instruction
system.cpu02.op_class::IntMult                      1      0.06%     62.47% # Class of executed instruction
system.cpu02.op_class::IntDiv                       2      0.11%     62.58% # Class of executed instruction
system.cpu02.op_class::FloatAdd                     0      0.00%     62.58% # Class of executed instruction
system.cpu02.op_class::FloatCmp                     0      0.00%     62.58% # Class of executed instruction
system.cpu02.op_class::FloatCvt                     0      0.00%     62.58% # Class of executed instruction
system.cpu02.op_class::FloatMult                    0      0.00%     62.58% # Class of executed instruction
system.cpu02.op_class::FloatMultAcc                 0      0.00%     62.58% # Class of executed instruction
system.cpu02.op_class::FloatDiv                     0      0.00%     62.58% # Class of executed instruction
system.cpu02.op_class::FloatMisc                    0      0.00%     62.58% # Class of executed instruction
system.cpu02.op_class::FloatSqrt                    0      0.00%     62.58% # Class of executed instruction
system.cpu02.op_class::SimdAdd                      0      0.00%     62.58% # Class of executed instruction
system.cpu02.op_class::SimdAddAcc                   0      0.00%     62.58% # Class of executed instruction
system.cpu02.op_class::SimdAlu                      0      0.00%     62.58% # Class of executed instruction
system.cpu02.op_class::SimdCmp                      0      0.00%     62.58% # Class of executed instruction
system.cpu02.op_class::SimdCvt                      0      0.00%     62.58% # Class of executed instruction
system.cpu02.op_class::SimdMisc                     0      0.00%     62.58% # Class of executed instruction
system.cpu02.op_class::SimdMult                     0      0.00%     62.58% # Class of executed instruction
system.cpu02.op_class::SimdMultAcc                  0      0.00%     62.58% # Class of executed instruction
system.cpu02.op_class::SimdShift                    0      0.00%     62.58% # Class of executed instruction
system.cpu02.op_class::SimdShiftAcc                 0      0.00%     62.58% # Class of executed instruction
system.cpu02.op_class::SimdSqrt                     0      0.00%     62.58% # Class of executed instruction
system.cpu02.op_class::SimdFloatAdd                 0      0.00%     62.58% # Class of executed instruction
system.cpu02.op_class::SimdFloatAlu                 0      0.00%     62.58% # Class of executed instruction
system.cpu02.op_class::SimdFloatCmp                 0      0.00%     62.58% # Class of executed instruction
system.cpu02.op_class::SimdFloatCvt                 0      0.00%     62.58% # Class of executed instruction
system.cpu02.op_class::SimdFloatDiv                 0      0.00%     62.58% # Class of executed instruction
system.cpu02.op_class::SimdFloatMisc                0      0.00%     62.58% # Class of executed instruction
system.cpu02.op_class::SimdFloatMult                0      0.00%     62.58% # Class of executed instruction
system.cpu02.op_class::SimdFloatMultAcc             0      0.00%     62.58% # Class of executed instruction
system.cpu02.op_class::SimdFloatSqrt                0      0.00%     62.58% # Class of executed instruction
system.cpu02.op_class::SimdAes                      0      0.00%     62.58% # Class of executed instruction
system.cpu02.op_class::SimdAesMix                   0      0.00%     62.58% # Class of executed instruction
system.cpu02.op_class::SimdSha1Hash                 0      0.00%     62.58% # Class of executed instruction
system.cpu02.op_class::SimdSha1Hash2                0      0.00%     62.58% # Class of executed instruction
system.cpu02.op_class::SimdSha256Hash               0      0.00%     62.58% # Class of executed instruction
system.cpu02.op_class::SimdSha256Hash2              0      0.00%     62.58% # Class of executed instruction
system.cpu02.op_class::SimdShaSigma2                0      0.00%     62.58% # Class of executed instruction
system.cpu02.op_class::SimdShaSigma3                0      0.00%     62.58% # Class of executed instruction
system.cpu02.op_class::MemRead                    426     23.61%     86.20% # Class of executed instruction
system.cpu02.op_class::MemWrite                   237     13.14%     99.33% # Class of executed instruction
system.cpu02.op_class::FloatMemRead                 0      0.00%     99.33% # Class of executed instruction
system.cpu02.op_class::FloatMemWrite               12      0.67%    100.00% # Class of executed instruction
system.cpu02.op_class::IprAccess                    0      0.00%    100.00% # Class of executed instruction
system.cpu02.op_class::InstPrefetch                 0      0.00%    100.00% # Class of executed instruction
system.cpu02.op_class::total                     1804                       # Class of executed instruction
system.cpu02.pwrStateClkGateDist::samples            1                       # Distribution of time spent in the clock gated state
system.cpu02.pwrStateClkGateDist::mean      105348500                       # Distribution of time spent in the clock gated state
system.cpu02.pwrStateClkGateDist::1000-5e+10            1    100.00%    100.00% # Distribution of time spent in the clock gated state
system.cpu02.pwrStateClkGateDist::min_value    105348500                       # Distribution of time spent in the clock gated state
system.cpu02.pwrStateClkGateDist::max_value    105348500                       # Distribution of time spent in the clock gated state
system.cpu02.pwrStateClkGateDist::total             1                       # Distribution of time spent in the clock gated state
system.cpu02.pwrStateResidencyTicks::ON     427761500                       # Cumulative time (in ticks) in various power states
system.cpu02.pwrStateResidencyTicks::CLK_GATED    105348500                       # Cumulative time (in ticks) in various power states
system.cpu03.Branches                             346                       # Number of branches fetched
system.cpu03.committedInsts                      1791                       # Number of instructions committed
system.cpu03.committedOps                        1797                       # Number of ops (including micro ops) committed
system.cpu03.dtb.accesses                           0                       # DTB accesses
system.cpu03.dtb.hits                               0                       # DTB hits
system.cpu03.dtb.misses                             0                       # DTB misses
system.cpu03.dtb.pwrStateResidencyTicks::UNDEFINED    533110000                       # Cumulative time (in ticks) in various power states
system.cpu03.dtb.read_accesses                      0                       # DTB read accesses
system.cpu03.dtb.read_hits                          0                       # DTB read hits
system.cpu03.dtb.read_misses                        0                       # DTB read misses
system.cpu03.dtb.write_accesses                     0                       # DTB write accesses
system.cpu03.dtb.write_hits                         0                       # DTB write hits
system.cpu03.dtb.write_misses                       0                       # DTB write misses
system.cpu03.idle_fraction                   0.977116                       # Percentage of idle cycles
system.cpu03.itb.accesses                           0                       # DTB accesses
system.cpu03.itb.hits                               0                       # DTB hits
system.cpu03.itb.misses                             0                       # DTB misses
system.cpu03.itb.pwrStateResidencyTicks::UNDEFINED    533110000                       # Cumulative time (in ticks) in various power states
system.cpu03.itb.read_accesses                      0                       # DTB read accesses
system.cpu03.itb.read_hits                          0                       # DTB read hits
system.cpu03.itb.read_misses                        0                       # DTB read misses
system.cpu03.itb.write_accesses                     0                       # DTB write accesses
system.cpu03.itb.write_hits                         0                       # DTB write hits
system.cpu03.itb.write_misses                       0                       # DTB write misses
system.cpu03.not_idle_fraction               0.022884                       # Percentage of non-idle cycles
system.cpu03.numCycles                        1066204                       # number of cpu cycles simulated
system.cpu03.numPwrStateTransitions                 2                       # Number of power state transitions
system.cpu03.numWorkItemsCompleted                  0                       # number of work items this cpu completed
system.cpu03.numWorkItemsStarted                    0                       # number of work items this cpu started
system.cpu03.num_busy_cycles             24398.635816                       # Number of busy cycles
system.cpu03.num_conditional_control_insts          176                       # number of instructions that are conditional controls
system.cpu03.num_fp_alu_accesses                   12                       # Number of float alu accesses
system.cpu03.num_fp_insts                          12                       # number of float instructions
system.cpu03.num_fp_register_reads                 12                       # number of times the floating registers were read
system.cpu03.num_fp_register_writes                 0                       # number of times the floating registers were written
system.cpu03.num_func_calls                       170                       # number of times a function call or return occured
system.cpu03.num_idle_cycles             1041805.364184                       # Number of idle cycles
system.cpu03.num_int_alu_accesses                1756                       # Number of integer alu accesses
system.cpu03.num_int_insts                       1756                       # number of integer instructions
system.cpu03.num_int_register_reads              2038                       # number of times the integer registers were read
system.cpu03.num_int_register_writes             1266                       # number of times the integer registers were written
system.cpu03.num_load_insts                       419                       # Number of load instructions
system.cpu03.num_mem_refs                         669                       # number of memory refs
system.cpu03.num_store_insts                      250                       # Number of store instructions
system.cpu03.num_vec_alu_accesses                   0                       # Number of vector alu accesses
system.cpu03.num_vec_insts                          0                       # number of vector instructions
system.cpu03.num_vec_register_reads                 0                       # number of times the vector registers were read
system.cpu03.num_vec_register_writes                0                       # number of times the vector registers were written
system.cpu03.op_class::No_OpClass                  10      0.56%      0.56% # Class of executed instruction
system.cpu03.op_class::IntAlu                    1117     62.09%     62.65% # Class of executed instruction
system.cpu03.op_class::IntMult                      1      0.06%     62.70% # Class of executed instruction
system.cpu03.op_class::IntDiv                       2      0.11%     62.81% # Class of executed instruction
system.cpu03.op_class::FloatAdd                     0      0.00%     62.81% # Class of executed instruction
system.cpu03.op_class::FloatCmp                     0      0.00%     62.81% # Class of executed instruction
system.cpu03.op_class::FloatCvt                     0      0.00%     62.81% # Class of executed instruction
system.cpu03.op_class::FloatMult                    0      0.00%     62.81% # Class of executed instruction
system.cpu03.op_class::FloatMultAcc                 0      0.00%     62.81% # Class of executed instruction
system.cpu03.op_class::FloatDiv                     0      0.00%     62.81% # Class of executed instruction
system.cpu03.op_class::FloatMisc                    0      0.00%     62.81% # Class of executed instruction
system.cpu03.op_class::FloatSqrt                    0      0.00%     62.81% # Class of executed instruction
system.cpu03.op_class::SimdAdd                      0      0.00%     62.81% # Class of executed instruction
system.cpu03.op_class::SimdAddAcc                   0      0.00%     62.81% # Class of executed instruction
system.cpu03.op_class::SimdAlu                      0      0.00%     62.81% # Class of executed instruction
system.cpu03.op_class::SimdCmp                      0      0.00%     62.81% # Class of executed instruction
system.cpu03.op_class::SimdCvt                      0      0.00%     62.81% # Class of executed instruction
system.cpu03.op_class::SimdMisc                     0      0.00%     62.81% # Class of executed instruction
system.cpu03.op_class::SimdMult                     0      0.00%     62.81% # Class of executed instruction
system.cpu03.op_class::SimdMultAcc                  0      0.00%     62.81% # Class of executed instruction
system.cpu03.op_class::SimdShift                    0      0.00%     62.81% # Class of executed instruction
system.cpu03.op_class::SimdShiftAcc                 0      0.00%     62.81% # Class of executed instruction
system.cpu03.op_class::SimdSqrt                     0      0.00%     62.81% # Class of executed instruction
system.cpu03.op_class::SimdFloatAdd                 0      0.00%     62.81% # Class of executed instruction
system.cpu03.op_class::SimdFloatAlu                 0      0.00%     62.81% # Class of executed instruction
system.cpu03.op_class::SimdFloatCmp                 0      0.00%     62.81% # Class of executed instruction
system.cpu03.op_class::SimdFloatCvt                 0      0.00%     62.81% # Class of executed instruction
system.cpu03.op_class::SimdFloatDiv                 0      0.00%     62.81% # Class of executed instruction
system.cpu03.op_class::SimdFloatMisc                0      0.00%     62.81% # Class of executed instruction
system.cpu03.op_class::SimdFloatMult                0      0.00%     62.81% # Class of executed instruction
system.cpu03.op_class::SimdFloatMultAcc             0      0.00%     62.81% # Class of executed instruction
system.cpu03.op_class::SimdFloatSqrt                0      0.00%     62.81% # Class of executed instruction
system.cpu03.op_class::SimdAes                      0      0.00%     62.81% # Class of executed instruction
system.cpu03.op_class::SimdAesMix                   0      0.00%     62.81% # Class of executed instruction
system.cpu03.op_class::SimdSha1Hash                 0      0.00%     62.81% # Class of executed instruction
system.cpu03.op_class::SimdSha1Hash2                0      0.00%     62.81% # Class of executed instruction
system.cpu03.op_class::SimdSha256Hash               0      0.00%     62.81% # Class of executed instruction
system.cpu03.op_class::SimdSha256Hash2              0      0.00%     62.81% # Class of executed instruction
system.cpu03.op_class::SimdShaSigma2                0      0.00%     62.81% # Class of executed instruction
system.cpu03.op_class::SimdShaSigma3                0      0.00%     62.81% # Class of executed instruction
system.cpu03.op_class::MemRead                    423     23.51%     86.33% # Class of executed instruction
system.cpu03.op_class::MemWrite                   234     13.01%     99.33% # Class of executed instruction
system.cpu03.op_class::FloatMemRead                 0      0.00%     99.33% # Class of executed instruction
system.cpu03.op_class::FloatMemWrite               12      0.67%    100.00% # Class of executed instruction
system.cpu03.op_class::IprAccess                    0      0.00%    100.00% # Class of executed instruction
system.cpu03.op_class::InstPrefetch                 0      0.00%    100.00% # Class of executed instruction
system.cpu03.op_class::total                     1799                       # Class of executed instruction
system.cpu03.pwrStateClkGateDist::samples            1                       # Distribution of time spent in the clock gated state
system.cpu03.pwrStateClkGateDist::mean       96944500                       # Distribution of time spent in the clock gated state
system.cpu03.pwrStateClkGateDist::1000-5e+10            1    100.00%    100.00% # Distribution of time spent in the clock gated state
system.cpu03.pwrStateClkGateDist::min_value     96944500                       # Distribution of time spent in the clock gated state
system.cpu03.pwrStateClkGateDist::max_value     96944500                       # Distribution of time spent in the clock gated state
system.cpu03.pwrStateClkGateDist::total             1                       # Distribution of time spent in the clock gated state
system.cpu03.pwrStateResidencyTicks::ON     436165500                       # Cumulative time (in ticks) in various power states
system.cpu03.pwrStateResidencyTicks::CLK_GATED     96944500                       # Cumulative time (in ticks) in various power states
system.cpu04.Branches                             306                       # Number of branches fetched
system.cpu04.committedInsts                      1587                       # Number of instructions committed
system.cpu04.committedOps                        1593                       # Number of ops (including micro ops) committed
system.cpu04.dtb.accesses                           0                       # DTB accesses
system.cpu04.dtb.hits                               0                       # DTB hits
system.cpu04.dtb.misses                             0                       # DTB misses
system.cpu04.dtb.pwrStateResidencyTicks::UNDEFINED    533110000                       # Cumulative time (in ticks) in various power states
system.cpu04.dtb.read_accesses                      0                       # DTB read accesses
system.cpu04.dtb.read_hits                          0                       # DTB read hits
system.cpu04.dtb.read_misses                        0                       # DTB read misses
system.cpu04.dtb.write_accesses                     0                       # DTB write accesses
system.cpu04.dtb.write_hits                         0                       # DTB write hits
system.cpu04.dtb.write_misses                       0                       # DTB write misses
system.cpu04.idle_fraction                   0.976605                       # Percentage of idle cycles
system.cpu04.itb.accesses                           0                       # DTB accesses
system.cpu04.itb.hits                               0                       # DTB hits
system.cpu04.itb.misses                             0                       # DTB misses
system.cpu04.itb.pwrStateResidencyTicks::UNDEFINED    533110000                       # Cumulative time (in ticks) in various power states
system.cpu04.itb.read_accesses                      0                       # DTB read accesses
system.cpu04.itb.read_hits                          0                       # DTB read hits
system.cpu04.itb.read_misses                        0                       # DTB read misses
system.cpu04.itb.write_accesses                     0                       # DTB write accesses
system.cpu04.itb.write_hits                         0                       # DTB write hits
system.cpu04.itb.write_misses                       0                       # DTB write misses
system.cpu04.not_idle_fraction               0.023395                       # Percentage of non-idle cycles
system.cpu04.numCycles                        1066135                       # number of cpu cycles simulated
system.cpu04.numPwrStateTransitions                 2                       # Number of power state transitions
system.cpu04.numWorkItemsCompleted                  0                       # number of work items this cpu completed
system.cpu04.numWorkItemsStarted                    0                       # number of work items this cpu started
system.cpu04.num_busy_cycles             24942.013395                       # Number of busy cycles
system.cpu04.num_conditional_control_insts          157                       # number of instructions that are conditional controls
system.cpu04.num_fp_alu_accesses                   12                       # Number of float alu accesses
system.cpu04.num_fp_insts                          12                       # number of float instructions
system.cpu04.num_fp_register_reads                 12                       # number of times the floating registers were read
system.cpu04.num_fp_register_writes                 0                       # number of times the floating registers were written
system.cpu04.num_func_calls                       149                       # number of times a function call or return occured
system.cpu04.num_idle_cycles             1041192.986605                       # Number of idle cycles
system.cpu04.num_int_alu_accesses                1557                       # Number of integer alu accesses
system.cpu04.num_int_insts                       1557                       # number of integer instructions
system.cpu04.num_int_register_reads              1811                       # number of times the integer registers were read
system.cpu04.num_int_register_writes             1116                       # number of times the integer registers were written
system.cpu04.num_load_insts                       369                       # Number of load instructions
system.cpu04.num_mem_refs                         599                       # number of memory refs
system.cpu04.num_store_insts                      230                       # Number of store instructions
system.cpu04.num_vec_alu_accesses                   0                       # Number of vector alu accesses
system.cpu04.num_vec_insts                          0                       # number of vector instructions
system.cpu04.num_vec_register_reads                 0                       # number of times the vector registers were read
system.cpu04.num_vec_register_writes                0                       # number of times the vector registers were written
system.cpu04.op_class::No_OpClass                  10      0.63%      0.63% # Class of executed instruction
system.cpu04.op_class::IntAlu                     983     61.63%     62.26% # Class of executed instruction
system.cpu04.op_class::IntMult                      1      0.06%     62.32% # Class of executed instruction
system.cpu04.op_class::IntDiv                       2      0.13%     62.45% # Class of executed instruction
system.cpu04.op_class::FloatAdd                     0      0.00%     62.45% # Class of executed instruction
system.cpu04.op_class::FloatCmp                     0      0.00%     62.45% # Class of executed instruction
system.cpu04.op_class::FloatCvt                     0      0.00%     62.45% # Class of executed instruction
system.cpu04.op_class::FloatMult                    0      0.00%     62.45% # Class of executed instruction
system.cpu04.op_class::FloatMultAcc                 0      0.00%     62.45% # Class of executed instruction
system.cpu04.op_class::FloatDiv                     0      0.00%     62.45% # Class of executed instruction
system.cpu04.op_class::FloatMisc                    0      0.00%     62.45% # Class of executed instruction
system.cpu04.op_class::FloatSqrt                    0      0.00%     62.45% # Class of executed instruction
system.cpu04.op_class::SimdAdd                      0      0.00%     62.45% # Class of executed instruction
system.cpu04.op_class::SimdAddAcc                   0      0.00%     62.45% # Class of executed instruction
system.cpu04.op_class::SimdAlu                      0      0.00%     62.45% # Class of executed instruction
system.cpu04.op_class::SimdCmp                      0      0.00%     62.45% # Class of executed instruction
system.cpu04.op_class::SimdCvt                      0      0.00%     62.45% # Class of executed instruction
system.cpu04.op_class::SimdMisc                     0      0.00%     62.45% # Class of executed instruction
system.cpu04.op_class::SimdMult                     0      0.00%     62.45% # Class of executed instruction
system.cpu04.op_class::SimdMultAcc                  0      0.00%     62.45% # Class of executed instruction
system.cpu04.op_class::SimdShift                    0      0.00%     62.45% # Class of executed instruction
system.cpu04.op_class::SimdShiftAcc                 0      0.00%     62.45% # Class of executed instruction
system.cpu04.op_class::SimdSqrt                     0      0.00%     62.45% # Class of executed instruction
system.cpu04.op_class::SimdFloatAdd                 0      0.00%     62.45% # Class of executed instruction
system.cpu04.op_class::SimdFloatAlu                 0      0.00%     62.45% # Class of executed instruction
system.cpu04.op_class::SimdFloatCmp                 0      0.00%     62.45% # Class of executed instruction
system.cpu04.op_class::SimdFloatCvt                 0      0.00%     62.45% # Class of executed instruction
system.cpu04.op_class::SimdFloatDiv                 0      0.00%     62.45% # Class of executed instruction
system.cpu04.op_class::SimdFloatMisc                0      0.00%     62.45% # Class of executed instruction
system.cpu04.op_class::SimdFloatMult                0      0.00%     62.45% # Class of executed instruction
system.cpu04.op_class::SimdFloatMultAcc             0      0.00%     62.45% # Class of executed instruction
system.cpu04.op_class::SimdFloatSqrt                0      0.00%     62.45% # Class of executed instruction
system.cpu04.op_class::SimdAes                      0      0.00%     62.45% # Class of executed instruction
system.cpu04.op_class::SimdAesMix                   0      0.00%     62.45% # Class of executed instruction
system.cpu04.op_class::SimdSha1Hash                 0      0.00%     62.45% # Class of executed instruction
system.cpu04.op_class::SimdSha1Hash2                0      0.00%     62.45% # Class of executed instruction
system.cpu04.op_class::SimdSha256Hash               0      0.00%     62.45% # Class of executed instruction
system.cpu04.op_class::SimdSha256Hash2              0      0.00%     62.45% # Class of executed instruction
system.cpu04.op_class::SimdShaSigma2                0      0.00%     62.45% # Class of executed instruction
system.cpu04.op_class::SimdShaSigma3                0      0.00%     62.45% # Class of executed instruction
system.cpu04.op_class::MemRead                    373     23.39%     85.83% # Class of executed instruction
system.cpu04.op_class::MemWrite                   214     13.42%     99.25% # Class of executed instruction
system.cpu04.op_class::FloatMemRead                 0      0.00%     99.25% # Class of executed instruction
system.cpu04.op_class::FloatMemWrite               12      0.75%    100.00% # Class of executed instruction
system.cpu04.op_class::IprAccess                    0      0.00%    100.00% # Class of executed instruction
system.cpu04.op_class::InstPrefetch                 0      0.00%    100.00% # Class of executed instruction
system.cpu04.op_class::total                     1595                       # Class of executed instruction
system.cpu04.pwrStateClkGateDist::samples            1                       # Distribution of time spent in the clock gated state
system.cpu04.pwrStateClkGateDist::mean       88492500                       # Distribution of time spent in the clock gated state
system.cpu04.pwrStateClkGateDist::1000-5e+10            1    100.00%    100.00% # Distribution of time spent in the clock gated state
system.cpu04.pwrStateClkGateDist::min_value     88492500                       # Distribution of time spent in the clock gated state
system.cpu04.pwrStateClkGateDist::max_value     88492500                       # Distribution of time spent in the clock gated state
system.cpu04.pwrStateClkGateDist::total             1                       # Distribution of time spent in the clock gated state
system.cpu04.pwrStateResidencyTicks::ON     444617500                       # Cumulative time (in ticks) in various power states
system.cpu04.pwrStateResidencyTicks::CLK_GATED     88492500                       # Cumulative time (in ticks) in various power states
system.cpu05.Branches                             353                       # Number of branches fetched
system.cpu05.committedInsts                      1835                       # Number of instructions committed
system.cpu05.committedOps                        1841                       # Number of ops (including micro ops) committed
system.cpu05.dtb.accesses                           0                       # DTB accesses
system.cpu05.dtb.hits                               0                       # DTB hits
system.cpu05.dtb.misses                             0                       # DTB misses
system.cpu05.dtb.pwrStateResidencyTicks::UNDEFINED    533110000                       # Cumulative time (in ticks) in various power states
system.cpu05.dtb.read_accesses                      0                       # DTB read accesses
system.cpu05.dtb.read_hits                          0                       # DTB read hits
system.cpu05.dtb.read_misses                        0                       # DTB read misses
system.cpu05.dtb.write_accesses                     0                       # DTB write accesses
system.cpu05.dtb.write_hits                         0                       # DTB write hits
system.cpu05.dtb.write_misses                       0                       # DTB write misses
system.cpu05.idle_fraction                   0.977689                       # Percentage of idle cycles
system.cpu05.itb.accesses                           0                       # DTB accesses
system.cpu05.itb.hits                               0                       # DTB hits
system.cpu05.itb.misses                             0                       # DTB misses
system.cpu05.itb.pwrStateResidencyTicks::UNDEFINED    533110000                       # Cumulative time (in ticks) in various power states
system.cpu05.itb.read_accesses                      0                       # DTB read accesses
system.cpu05.itb.read_hits                          0                       # DTB read hits
system.cpu05.itb.read_misses                        0                       # DTB read misses
system.cpu05.itb.write_accesses                     0                       # DTB write accesses
system.cpu05.itb.write_hits                         0                       # DTB write hits
system.cpu05.itb.write_misses                       0                       # DTB write misses
system.cpu05.not_idle_fraction               0.022311                       # Percentage of non-idle cycles
system.cpu05.numCycles                        1066169                       # number of cpu cycles simulated
system.cpu05.numPwrStateTransitions                 2                       # Number of power state transitions
system.cpu05.numWorkItemsCompleted                  0                       # number of work items this cpu completed
system.cpu05.numWorkItemsStarted                    0                       # number of work items this cpu started
system.cpu05.num_busy_cycles             23786.864115                       # Number of busy cycles
system.cpu05.num_conditional_control_insts          182                       # number of instructions that are conditional controls
system.cpu05.num_fp_alu_accesses                   12                       # Number of float alu accesses
system.cpu05.num_fp_insts                          12                       # number of float instructions
system.cpu05.num_fp_register_reads                 12                       # number of times the floating registers were read
system.cpu05.num_fp_register_writes                 0                       # number of times the floating registers were written
system.cpu05.num_func_calls                       171                       # number of times a function call or return occured
system.cpu05.num_idle_cycles             1042382.135885                       # Number of idle cycles
system.cpu05.num_int_alu_accesses                1802                       # Number of integer alu accesses
system.cpu05.num_int_insts                       1802                       # number of integer instructions
system.cpu05.num_int_register_reads              2090                       # number of times the integer registers were read
system.cpu05.num_int_register_writes             1300                       # number of times the integer registers were written
system.cpu05.num_load_insts                       430                       # Number of load instructions
system.cpu05.num_mem_refs                         685                       # number of memory refs
system.cpu05.num_store_insts                      255                       # Number of store instructions
system.cpu05.num_vec_alu_accesses                   0                       # Number of vector alu accesses
system.cpu05.num_vec_insts                          0                       # number of vector instructions
system.cpu05.num_vec_register_reads                 0                       # number of times the vector registers were read
system.cpu05.num_vec_register_writes                0                       # number of times the vector registers were written
system.cpu05.op_class::No_OpClass                  10      0.54%      0.54% # Class of executed instruction
system.cpu05.op_class::IntAlu                    1145     62.13%     62.67% # Class of executed instruction
system.cpu05.op_class::IntMult                      1      0.05%     62.72% # Class of executed instruction
system.cpu05.op_class::IntDiv                       2      0.11%     62.83% # Class of executed instruction
system.cpu05.op_class::FloatAdd                     0      0.00%     62.83% # Class of executed instruction
system.cpu05.op_class::FloatCmp                     0      0.00%     62.83% # Class of executed instruction
system.cpu05.op_class::FloatCvt                     0      0.00%     62.83% # Class of executed instruction
system.cpu05.op_class::FloatMult                    0      0.00%     62.83% # Class of executed instruction
system.cpu05.op_class::FloatMultAcc                 0      0.00%     62.83% # Class of executed instruction
system.cpu05.op_class::FloatDiv                     0      0.00%     62.83% # Class of executed instruction
system.cpu05.op_class::FloatMisc                    0      0.00%     62.83% # Class of executed instruction
system.cpu05.op_class::FloatSqrt                    0      0.00%     62.83% # Class of executed instruction
system.cpu05.op_class::SimdAdd                      0      0.00%     62.83% # Class of executed instruction
system.cpu05.op_class::SimdAddAcc                   0      0.00%     62.83% # Class of executed instruction
system.cpu05.op_class::SimdAlu                      0      0.00%     62.83% # Class of executed instruction
system.cpu05.op_class::SimdCmp                      0      0.00%     62.83% # Class of executed instruction
system.cpu05.op_class::SimdCvt                      0      0.00%     62.83% # Class of executed instruction
system.cpu05.op_class::SimdMisc                     0      0.00%     62.83% # Class of executed instruction
system.cpu05.op_class::SimdMult                     0      0.00%     62.83% # Class of executed instruction
system.cpu05.op_class::SimdMultAcc                  0      0.00%     62.83% # Class of executed instruction
system.cpu05.op_class::SimdShift                    0      0.00%     62.83% # Class of executed instruction
system.cpu05.op_class::SimdShiftAcc                 0      0.00%     62.83% # Class of executed instruction
system.cpu05.op_class::SimdSqrt                     0      0.00%     62.83% # Class of executed instruction
system.cpu05.op_class::SimdFloatAdd                 0      0.00%     62.83% # Class of executed instruction
system.cpu05.op_class::SimdFloatAlu                 0      0.00%     62.83% # Class of executed instruction
system.cpu05.op_class::SimdFloatCmp                 0      0.00%     62.83% # Class of executed instruction
system.cpu05.op_class::SimdFloatCvt                 0      0.00%     62.83% # Class of executed instruction
system.cpu05.op_class::SimdFloatDiv                 0      0.00%     62.83% # Class of executed instruction
system.cpu05.op_class::SimdFloatMisc                0      0.00%     62.83% # Class of executed instruction
system.cpu05.op_class::SimdFloatMult                0      0.00%     62.83% # Class of executed instruction
system.cpu05.op_class::SimdFloatMultAcc             0      0.00%     62.83% # Class of executed instruction
system.cpu05.op_class::SimdFloatSqrt                0      0.00%     62.83% # Class of executed instruction
system.cpu05.op_class::SimdAes                      0      0.00%     62.83% # Class of executed instruction
system.cpu05.op_class::SimdAesMix                   0      0.00%     62.83% # Class of executed instruction
system.cpu05.op_class::SimdSha1Hash                 0      0.00%     62.83% # Class of executed instruction
system.cpu05.op_class::SimdSha1Hash2                0      0.00%     62.83% # Class of executed instruction
system.cpu05.op_class::SimdSha256Hash               0      0.00%     62.83% # Class of executed instruction
system.cpu05.op_class::SimdSha256Hash2              0      0.00%     62.83% # Class of executed instruction
system.cpu05.op_class::SimdShaSigma2                0      0.00%     62.83% # Class of executed instruction
system.cpu05.op_class::SimdShaSigma3                0      0.00%     62.83% # Class of executed instruction
system.cpu05.op_class::MemRead                    434     23.55%     86.38% # Class of executed instruction
system.cpu05.op_class::MemWrite                   239     12.97%     99.35% # Class of executed instruction
system.cpu05.op_class::FloatMemRead                 0      0.00%     99.35% # Class of executed instruction
system.cpu05.op_class::FloatMemWrite               12      0.65%    100.00% # Class of executed instruction
system.cpu05.op_class::IprAccess                    0      0.00%    100.00% # Class of executed instruction
system.cpu05.op_class::InstPrefetch                 0      0.00%    100.00% # Class of executed instruction
system.cpu05.op_class::total                     1843                       # Class of executed instruction
system.cpu05.pwrStateClkGateDist::samples            1                       # Distribution of time spent in the clock gated state
system.cpu05.pwrStateClkGateDist::mean       80698000                       # Distribution of time spent in the clock gated state
system.cpu05.pwrStateClkGateDist::1000-5e+10            1    100.00%    100.00% # Distribution of time spent in the clock gated state
system.cpu05.pwrStateClkGateDist::min_value     80698000                       # Distribution of time spent in the clock gated state
system.cpu05.pwrStateClkGateDist::max_value     80698000                       # Distribution of time spent in the clock gated state
system.cpu05.pwrStateClkGateDist::total             1                       # Distribution of time spent in the clock gated state
system.cpu05.pwrStateResidencyTicks::ON     452412000                       # Cumulative time (in ticks) in various power states
system.cpu05.pwrStateResidencyTicks::CLK_GATED     80698000                       # Cumulative time (in ticks) in various power states
system.cpu06.Branches                             339                       # Number of branches fetched
system.cpu06.committedInsts                      1756                       # Number of instructions committed
system.cpu06.committedOps                        1762                       # Number of ops (including micro ops) committed
system.cpu06.dtb.accesses                           0                       # DTB accesses
system.cpu06.dtb.hits                               0                       # DTB hits
system.cpu06.dtb.misses                             0                       # DTB misses
system.cpu06.dtb.pwrStateResidencyTicks::UNDEFINED    533110000                       # Cumulative time (in ticks) in various power states
system.cpu06.dtb.read_accesses                      0                       # DTB read accesses
system.cpu06.dtb.read_hits                          0                       # DTB read hits
system.cpu06.dtb.read_misses                        0                       # DTB read misses
system.cpu06.dtb.write_accesses                     0                       # DTB write accesses
system.cpu06.dtb.write_hits                         0                       # DTB write hits
system.cpu06.dtb.write_misses                       0                       # DTB write misses
system.cpu06.idle_fraction                   0.977926                       # Percentage of idle cycles
system.cpu06.itb.accesses                           0                       # DTB accesses
system.cpu06.itb.hits                               0                       # DTB hits
system.cpu06.itb.misses                             0                       # DTB misses
system.cpu06.itb.pwrStateResidencyTicks::UNDEFINED    533110000                       # Cumulative time (in ticks) in various power states
system.cpu06.itb.read_accesses                      0                       # DTB read accesses
system.cpu06.itb.read_hits                          0                       # DTB read hits
system.cpu06.itb.read_misses                        0                       # DTB read misses
system.cpu06.itb.write_accesses                     0                       # DTB write accesses
system.cpu06.itb.write_hits                         0                       # DTB write hits
system.cpu06.itb.write_misses                       0                       # DTB write misses
system.cpu06.not_idle_fraction               0.022074                       # Percentage of non-idle cycles
system.cpu06.numCycles                        1066163                       # number of cpu cycles simulated
system.cpu06.numPwrStateTransitions                 2                       # Number of power state transitions
system.cpu06.numWorkItemsCompleted                  0                       # number of work items this cpu completed
system.cpu06.numWorkItemsStarted                    0                       # number of work items this cpu started
system.cpu06.num_busy_cycles             23534.743724                       # Number of busy cycles
system.cpu06.num_conditional_control_insts          173                       # number of instructions that are conditional controls
system.cpu06.num_fp_alu_accesses                   12                       # Number of float alu accesses
system.cpu06.num_fp_insts                          12                       # number of float instructions
system.cpu06.num_fp_register_reads                 12                       # number of times the floating registers were read
system.cpu06.num_fp_register_writes                 0                       # number of times the floating registers were written
system.cpu06.num_func_calls                       166                       # number of times a function call or return occured
system.cpu06.num_idle_cycles             1042628.256276                       # Number of idle cycles
system.cpu06.num_int_alu_accesses                1722                       # Number of integer alu accesses
system.cpu06.num_int_insts                       1722                       # number of integer instructions
system.cpu06.num_int_register_reads              2000                       # number of times the integer registers were read
system.cpu06.num_int_register_writes             1240                       # number of times the integer registers were written
system.cpu06.num_load_insts                       411                       # Number of load instructions
system.cpu06.num_mem_refs                         658                       # number of memory refs
system.cpu06.num_store_insts                      247                       # Number of store instructions
system.cpu06.num_vec_alu_accesses                   0                       # Number of vector alu accesses
system.cpu06.num_vec_insts                          0                       # number of vector instructions
system.cpu06.num_vec_register_reads                 0                       # number of times the vector registers were read
system.cpu06.num_vec_register_writes                0                       # number of times the vector registers were written
system.cpu06.op_class::No_OpClass                  10      0.57%      0.57% # Class of executed instruction
system.cpu06.op_class::IntAlu                    1093     61.96%     62.53% # Class of executed instruction
system.cpu06.op_class::IntMult                      1      0.06%     62.59% # Class of executed instruction
system.cpu06.op_class::IntDiv                       2      0.11%     62.70% # Class of executed instruction
system.cpu06.op_class::FloatAdd                     0      0.00%     62.70% # Class of executed instruction
system.cpu06.op_class::FloatCmp                     0      0.00%     62.70% # Class of executed instruction
system.cpu06.op_class::FloatCvt                     0      0.00%     62.70% # Class of executed instruction
system.cpu06.op_class::FloatMult                    0      0.00%     62.70% # Class of executed instruction
system.cpu06.op_class::FloatMultAcc                 0      0.00%     62.70% # Class of executed instruction
system.cpu06.op_class::FloatDiv                     0      0.00%     62.70% # Class of executed instruction
system.cpu06.op_class::FloatMisc                    0      0.00%     62.70% # Class of executed instruction
system.cpu06.op_class::FloatSqrt                    0      0.00%     62.70% # Class of executed instruction
system.cpu06.op_class::SimdAdd                      0      0.00%     62.70% # Class of executed instruction
system.cpu06.op_class::SimdAddAcc                   0      0.00%     62.70% # Class of executed instruction
system.cpu06.op_class::SimdAlu                      0      0.00%     62.70% # Class of executed instruction
system.cpu06.op_class::SimdCmp                      0      0.00%     62.70% # Class of executed instruction
system.cpu06.op_class::SimdCvt                      0      0.00%     62.70% # Class of executed instruction
system.cpu06.op_class::SimdMisc                     0      0.00%     62.70% # Class of executed instruction
system.cpu06.op_class::SimdMult                     0      0.00%     62.70% # Class of executed instruction
system.cpu06.op_class::SimdMultAcc                  0      0.00%     62.70% # Class of executed instruction
system.cpu06.op_class::SimdShift                    0      0.00%     62.70% # Class of executed instruction
system.cpu06.op_class::SimdShiftAcc                 0      0.00%     62.70% # Class of executed instruction
system.cpu06.op_class::SimdSqrt                     0      0.00%     62.70% # Class of executed instruction
system.cpu06.op_class::SimdFloatAdd                 0      0.00%     62.70% # Class of executed instruction
system.cpu06.op_class::SimdFloatAlu                 0      0.00%     62.70% # Class of executed instruction
system.cpu06.op_class::SimdFloatCmp                 0      0.00%     62.70% # Class of executed instruction
system.cpu06.op_class::SimdFloatCvt                 0      0.00%     62.70% # Class of executed instruction
system.cpu06.op_class::SimdFloatDiv                 0      0.00%     62.70% # Class of executed instruction
system.cpu06.op_class::SimdFloatMisc                0      0.00%     62.70% # Class of executed instruction
system.cpu06.op_class::SimdFloatMult                0      0.00%     62.70% # Class of executed instruction
system.cpu06.op_class::SimdFloatMultAcc             0      0.00%     62.70% # Class of executed instruction
system.cpu06.op_class::SimdFloatSqrt                0      0.00%     62.70% # Class of executed instruction
system.cpu06.op_class::SimdAes                      0      0.00%     62.70% # Class of executed instruction
system.cpu06.op_class::SimdAesMix                   0      0.00%     62.70% # Class of executed instruction
system.cpu06.op_class::SimdSha1Hash                 0      0.00%     62.70% # Class of executed instruction
system.cpu06.op_class::SimdSha1Hash2                0      0.00%     62.70% # Class of executed instruction
system.cpu06.op_class::SimdSha256Hash               0      0.00%     62.70% # Class of executed instruction
system.cpu06.op_class::SimdSha256Hash2              0      0.00%     62.70% # Class of executed instruction
system.cpu06.op_class::SimdShaSigma2                0      0.00%     62.70% # Class of executed instruction
system.cpu06.op_class::SimdShaSigma3                0      0.00%     62.70% # Class of executed instruction
system.cpu06.op_class::MemRead                    415     23.53%     86.22% # Class of executed instruction
system.cpu06.op_class::MemWrite                   231     13.10%     99.32% # Class of executed instruction
system.cpu06.op_class::FloatMemRead                 0      0.00%     99.32% # Class of executed instruction
system.cpu06.op_class::FloatMemWrite               12      0.68%    100.00% # Class of executed instruction
system.cpu06.op_class::IprAccess                    0      0.00%    100.00% # Class of executed instruction
system.cpu06.op_class::InstPrefetch                 0      0.00%    100.00% # Class of executed instruction
system.cpu06.op_class::total                     1764                       # Class of executed instruction
system.cpu06.pwrStateClkGateDist::samples            1                       # Distribution of time spent in the clock gated state
system.cpu06.pwrStateClkGateDist::mean       73107000                       # Distribution of time spent in the clock gated state
system.cpu06.pwrStateClkGateDist::1000-5e+10            1    100.00%    100.00% # Distribution of time spent in the clock gated state
system.cpu06.pwrStateClkGateDist::min_value     73107000                       # Distribution of time spent in the clock gated state
[...]
system.ruby.network.int_links39.credit_link.pwrStateResidencyTicks::UNDEFINED    533110000                       # Cumulative time (in ticks) in various power states
system.ruby.network.int_links39.network_link.pwrStateResidencyTicks::UNDEFINED    533110000                       # Cumulative time (in ticks) in various power states
system.ruby.network.int_links40.credit_link.pwrStateResidencyTicks::UNDEFINED    533110000                       # Cumulative time (in ticks) in various power states
system.ruby.network.int_links40.network_link.pwrStateResidencyTicks::UNDEFINED    533110000                       # Cumulative time (in ticks) in various power states
system.ruby.network.int_links41.credit_link.pwrStateResidencyTicks::UNDEFINED    533110000                       # Cumulative time (in ticks) in various power states
system.ruby.network.int_links41.network_link.pwrStateResidencyTicks::UNDEFINED    533110000                       # Cumulative time (in ticks) in various power states
system.ruby.network.int_links42.credit_link.pwrStateResidencyTicks::UNDEFINED    533110000                       # Cumulative time (in ticks) in various power states
system.ruby.network.int_links42.network_link.pwrStateResidencyTicks::UNDEFINED    533110000                       # Cumulative time (in ticks) in various power states
system.ruby.network.int_links43.credit_link.pwrStateResidencyTicks::UNDEFINED    533110000                       # Cumulative time (in ticks) in various power states
system.ruby.network.int_links43.network_link.pwrStateResidencyTicks::UNDEFINED    533110000                       # Cumulative time (in ticks) in various power states
system.ruby.network.int_links44.credit_link.pwrStateResidencyTicks::UNDEFINED    533110000                       # Cumulative time (in ticks) in various power states
system.ruby.network.int_links44.network_link.pwrStateResidencyTicks::UNDEFINED    533110000                       # Cumulative time (in ticks) in various power states
system.ruby.network.int_links45.credit_link.pwrStateResidencyTicks::UNDEFINED    533110000                       # Cumulative time (in ticks) in various power states
system.ruby.network.int_links45.network_link.pwrStateResidencyTicks::UNDEFINED    533110000                       # Cumulative time (in ticks) in various power states
system.ruby.network.int_links46.credit_link.pwrStateResidencyTicks::UNDEFINED    533110000                       # Cumulative time (in ticks) in various power states
system.ruby.network.int_links46.network_link.pwrStateResidencyTicks::UNDEFINED    533110000                       # Cumulative time (in ticks) in various power states
system.ruby.network.int_links47.credit_link.pwrStateResidencyTicks::UNDEFINED    533110000                       # Cumulative time (in ticks) in various power states
system.ruby.network.int_links47.network_link.pwrStateResidencyTicks::UNDEFINED    533110000                       # Cumulative time (in ticks) in various power states
system.ruby.network.netifs00.pwrStateResidencyTicks::UNDEFINED    533110000                       # Cumulative time (in ticks) in various power states
system.ruby.network.netifs01.pwrStateResidencyTicks::UNDEFINED    533110000                       # Cumulative time (in ticks) in various power states
system.ruby.network.netifs02.pwrStateResidencyTicks::UNDEFINED    533110000                       # Cumulative time (in ticks) in various power states
system.ruby.network.netifs03.pwrStateResidencyTicks::UNDEFINED    533110000                       # Cumulative time (in ticks) in various power states
system.ruby.network.netifs04.pwrStateResidencyTicks::UNDEFINED    533110000                       # Cumulative time (in ticks) in various power states
system.ruby.network.netifs05.pwrStateResidencyTicks::UNDEFINED    533110000                       # Cumulative time (in ticks) in various power states
system.ruby.network.netifs06.pwrStateResidencyTicks::UNDEFINED    533110000                       # Cumulative time (in ticks) in various power states
system.ruby.network.netifs07.pwrStateResidencyTicks::UNDEFINED    533110000                       # Cumulative time (in ticks) in various power states
system.ruby.network.netifs08.pwrStateResidencyTicks::UNDEFINED    533110000                       # Cumulative time (in ticks) in various power states
system.ruby.network.netifs09.pwrStateResidencyTicks::UNDEFINED    533110000                       # Cumulative time (in ticks) in various power states
system.ruby.network.netifs10.pwrStateResidencyTicks::UNDEFINED    533110000                       # Cumulative time (in ticks) in various power states
system.ruby.network.netifs11.pwrStateResidencyTicks::UNDEFINED    533110000                       # Cumulative time (in ticks) in various power states
system.ruby.network.netifs12.pwrStateResidencyTicks::UNDEFINED    533110000                       # Cumulative time (in ticks) in various power states
system.ruby.network.netifs13.pwrStateResidencyTicks::UNDEFINED    533110000                       # Cumulative time (in ticks) in various power states
system.ruby.network.netifs14.pwrStateResidencyTicks::UNDEFINED    533110000                       # Cumulative time (in ticks) in various power states
system.ruby.network.netifs15.pwrStateResidencyTicks::UNDEFINED    533110000                       # Cumulative time (in ticks) in various power states
system.ruby.network.netifs16.pwrStateResidencyTicks::UNDEFINED    533110000                       # Cumulative time (in ticks) in various power states
system.ruby.network.netifs17.pwrStateResidencyTicks::UNDEFINED    533110000                       # Cumulative time (in ticks) in various power states
system.ruby.network.netifs18.pwrStateResidencyTicks::UNDEFINED    533110000                       # Cumulative time (in ticks) in various power states
system.ruby.network.netifs19.pwrStateResidencyTicks::UNDEFINED    533110000                       # Cumulative time (in ticks) in various power states
system.ruby.network.netifs20.pwrStateResidencyTicks::UNDEFINED    533110000                       # Cumulative time (in ticks) in various power states
system.ruby.network.netifs21.pwrStateResidencyTicks::UNDEFINED    533110000                       # Cumulative time (in ticks) in various power states
system.ruby.network.netifs22.pwrStateResidencyTicks::UNDEFINED    533110000                       # Cumulative time (in ticks) in various power states
system.ruby.network.netifs23.pwrStateResidencyTicks::UNDEFINED    533110000                       # Cumulative time (in ticks) in various power states
system.ruby.network.netifs24.pwrStateResidencyTicks::UNDEFINED    533110000                       # Cumulative time (in ticks) in various power states
system.ruby.network.netifs25.pwrStateResidencyTicks::UNDEFINED    533110000                       # Cumulative time (in ticks) in various power states
system.ruby.network.netifs26.pwrStateResidencyTicks::UNDEFINED    533110000                       # Cumulative time (in ticks) in various power states
system.ruby.network.netifs27.pwrStateResidencyTicks::UNDEFINED    533110000                       # Cumulative time (in ticks) in various power states
system.ruby.network.netifs28.pwrStateResidencyTicks::UNDEFINED    533110000                       # Cumulative time (in ticks) in various power states
system.ruby.network.netifs29.pwrStateResidencyTicks::UNDEFINED    533110000                       # Cumulative time (in ticks) in various power states
system.ruby.network.netifs30.pwrStateResidencyTicks::UNDEFINED    533110000                       # Cumulative time (in ticks) in various power states
system.ruby.network.netifs31.pwrStateResidencyTicks::UNDEFINED    533110000                       # Cumulative time (in ticks) in various power states
system.ruby.network.netifs32.pwrStateResidencyTicks::UNDEFINED    533110000                       # Cumulative time (in ticks) in various power states
system.ruby.network.netifs33.pwrStateResidencyTicks::UNDEFINED    533110000                       # Cumulative time (in ticks) in various power states
system.ruby.network.netifs34.pwrStateResidencyTicks::UNDEFINED    533110000                       # Cumulative time (in ticks) in various power states
system.ruby.network.netifs35.pwrStateResidencyTicks::UNDEFINED    533110000                       # Cumulative time (in ticks) in various power states
system.ruby.network.packet_network_latency |      258075                       |      443396                       |       99953                      
system.ruby.network.packet_queueing_latency |       52323                       |       51449                       |       11438                      
system.ruby.network.packets_injected     |       23279     33.38%     33.38% |       35511     50.92%     84.30% |       10945     15.70%    100.00%
system.ruby.network.packets_injected::total        69735                      
system.ruby.network.packets_received     |       23276     33.38%     33.38% |       35502     50.92%     84.30% |       10943     15.70%    100.00%
system.ruby.network.packets_received::total        69721                      
system.ruby.network.pwrStateResidencyTicks::UNDEFINED    533110000                       # Cumulative time (in ticks) in various power states
system.ruby.network.routers00.buffer_reads       107091                      
system.ruby.network.routers00.buffer_writes       107091                      
system.ruby.network.routers00.crossbar_activity       107091                      
system.ruby.network.routers00.pwrStateResidencyTicks::UNDEFINED    533110000                       # Cumulative time (in ticks) in various power states
system.ruby.network.routers00.sw_input_arbiter_activity       107537                      
system.ruby.network.routers00.sw_output_arbiter_activity       107091                      
system.ruby.network.routers01.buffer_reads        50810                      
system.ruby.network.routers01.buffer_writes        50810                      
system.ruby.network.routers01.crossbar_activity        50810                      
system.ruby.network.routers01.pwrStateResidencyTicks::UNDEFINED    533110000                       # Cumulative time (in ticks) in various power states
system.ruby.network.routers01.sw_input_arbiter_activity        50952                      
system.ruby.network.routers01.sw_output_arbiter_activity        50810                      
system.ruby.network.routers02.buffer_reads        36700                      
system.ruby.network.routers02.buffer_writes        36700                      
system.ruby.network.routers02.crossbar_activity        36700                      
system.ruby.network.routers02.pwrStateResidencyTicks::UNDEFINED    533110000                       # Cumulative time (in ticks) in various power states
system.ruby.network.routers02.sw_input_arbiter_activity        36894                      
system.ruby.network.routers02.sw_output_arbiter_activity        36700                      
system.ruby.network.routers03.buffer_reads        27584                      
system.ruby.network.routers03.buffer_writes        27584                      
system.ruby.network.routers03.crossbar_activity        27584                      
system.ruby.network.routers03.pwrStateResidencyTicks::UNDEFINED    533110000                       # Cumulative time (in ticks) in various power states
system.ruby.network.routers03.sw_input_arbiter_activity        27819                      
system.ruby.network.routers03.sw_output_arbiter_activity        27584                      
system.ruby.network.routers04.buffer_reads        63938                      
system.ruby.network.routers04.buffer_writes        63938                      
system.ruby.network.routers04.crossbar_activity        63938                      
system.ruby.network.routers04.pwrStateResidencyTicks::UNDEFINED    533110000                       # Cumulative time (in ticks) in various power states
system.ruby.network.routers04.sw_input_arbiter_activity        64524                      
system.ruby.network.routers04.sw_output_arbiter_activity        63938                      
system.ruby.network.routers05.buffer_reads        26594                      
system.ruby.network.routers05.buffer_writes        26594                      
system.ruby.network.routers05.crossbar_activity        26594                      
system.ruby.network.routers05.pwrStateResidencyTicks::UNDEFINED    533110000                       # Cumulative time (in ticks) in various power states
system.ruby.network.routers05.sw_input_arbiter_activity        26637                      
system.ruby.network.routers05.sw_output_arbiter_activity        26594                      
system.ruby.network.routers06.buffer_reads        21217                      
system.ruby.network.routers06.buffer_writes        21217                      
system.ruby.network.routers06.crossbar_activity        21217                      
system.ruby.network.routers06.pwrStateResidencyTicks::UNDEFINED    533110000                       # Cumulative time (in ticks) in various power states
system.ruby.network.routers06.sw_input_arbiter_activity        21282                      
system.ruby.network.routers06.sw_output_arbiter_activity        21217                      
system.ruby.network.routers07.buffer_reads        22836                      
system.ruby.network.routers07.buffer_writes        22836                      
system.ruby.network.routers07.crossbar_activity        22836                      
system.ruby.network.routers07.pwrStateResidencyTicks::UNDEFINED    533110000                       # Cumulative time (in ticks) in various power states
system.ruby.network.routers07.sw_input_arbiter_activity        23296                      
system.ruby.network.routers07.sw_output_arbiter_activity        22836                      
system.ruby.network.routers08.buffer_reads        50120                      
system.ruby.network.routers08.buffer_writes        50120                      
system.ruby.network.routers08.crossbar_activity        50118                      
system.ruby.network.routers08.pwrStateResidencyTicks::UNDEFINED    533110000                       # Cumulative time (in ticks) in various power states
system.ruby.network.routers08.sw_input_arbiter_activity        52588                      
system.ruby.network.routers08.sw_output_arbiter_activity        50118                      
system.ruby.network.routers09.buffer_reads        25157                      
system.ruby.network.routers09.buffer_writes        25157                      
system.ruby.network.routers09.crossbar_activity        25157                      
system.ruby.network.routers09.pwrStateResidencyTicks::UNDEFINED    533110000                       # Cumulative time (in ticks) in various power states
system.ruby.network.routers09.sw_input_arbiter_activity        25363                      
system.ruby.network.routers09.sw_output_arbiter_activity        25157                      
system.ruby.network.routers10.buffer_reads        26466                      
system.ruby.network.routers10.buffer_writes        26466                      
system.ruby.network.routers10.crossbar_activity        26466                      
system.ruby.network.routers10.pwrStateResidencyTicks::UNDEFINED    533110000                       # Cumulative time (in ticks) in various power states
system.ruby.network.routers10.sw_input_arbiter_activity        26802                      
system.ruby.network.routers10.sw_output_arbiter_activity        26466                      
system.ruby.network.routers11.buffer_reads        34402                      
system.ruby.network.routers11.buffer_writes        34402                      
system.ruby.network.routers11.crossbar_activity        34402                      
system.ruby.network.routers11.pwrStateResidencyTicks::UNDEFINED    533110000                       # Cumulative time (in ticks) in various power states
system.ruby.network.routers11.sw_input_arbiter_activity        37947                      
system.ruby.network.routers11.sw_output_arbiter_activity        34402                      
system.ruby.network.routers12.buffer_reads        50853                      
system.ruby.network.routers12.buffer_writes        50853                      
system.ruby.network.routers12.crossbar_activity        50847                      
system.ruby.network.routers12.pwrStateResidencyTicks::UNDEFINED    533110000                       # Cumulative time (in ticks) in various power states
system.ruby.network.routers12.sw_input_arbiter_activity        55170                      
system.ruby.network.routers12.sw_output_arbiter_activity        50847                      
system.ruby.network.routers13.buffer_reads        35277                      
system.ruby.network.routers13.buffer_writes        35277                      
system.ruby.network.routers13.crossbar_activity        35277                      
system.ruby.network.routers13.pwrStateResidencyTicks::UNDEFINED    533110000                       # Cumulative time (in ticks) in various power states
system.ruby.network.routers13.sw_input_arbiter_activity        35610                      
system.ruby.network.routers13.sw_output_arbiter_activity        35277                      
system.ruby.network.routers14.buffer_reads        30193                      
system.ruby.network.routers14.buffer_writes        30193                      
system.ruby.network.routers14.crossbar_activity        30193                      
system.ruby.network.routers14.pwrStateResidencyTicks::UNDEFINED    533110000                       # Cumulative time (in ticks) in various power states
system.ruby.network.routers14.sw_input_arbiter_activity        30419                      
system.ruby.network.routers14.sw_output_arbiter_activity        30193                      
system.ruby.network.routers15.buffer_reads        26591                      
system.ruby.network.routers15.buffer_writes        26591                      
system.ruby.network.routers15.crossbar_activity        26591                      
system.ruby.network.routers15.pwrStateResidencyTicks::UNDEFINED    533110000                       # Cumulative time (in ticks) in various power states
system.ruby.network.routers15.sw_input_arbiter_activity        27746                      
system.ruby.network.routers15.sw_output_arbiter_activity        26591                      
system.ruby.outstanding_req_hist_seqr::bucket_size            1                      
system.ruby.outstanding_req_hist_seqr::max_bucket            9                      
system.ruby.outstanding_req_hist_seqr::samples       201713                      
system.ruby.outstanding_req_hist_seqr::mean            1                      
system.ruby.outstanding_req_hist_seqr::gmean            1                      
system.ruby.outstanding_req_hist_seqr    |           0      0.00%      0.00% |      201713    100.00%    100.00% |           0      0.00%    100.00% |           0      0.00%    100.00% |           0      0.00%    100.00% |           0      0.00%    100.00% |           0      0.00%    100.00% |           0      0.00%    100.00% |           0      0.00%    100.00% |           0      0.00%    100.00%
system.ruby.outstanding_req_hist_seqr::total       201713                      
system.ruby.pwrStateResidencyTicks::UNDEFINED    533110000                       # Cumulative time (in ticks) in various power states
system.sys_port_proxy.pwrStateResidencyTicks::UNDEFINED    533110000                       # Cumulative time (in ticks) in various power states
system.voltage_domain.voltage                       1                       # Voltage in Volts

---------- End Simulation Statistics   ----------
