
---------- Begin Simulation Statistics ----------
final_tick                                  483034000                       # Number of ticks from beginning of simulation (restored from checkpoints and never reset)
host_inst_rate                                  24857                       # Simulator instruction rate (inst/s)
host_mem_usage                                5160748                       # Number of bytes of host memory used
host_op_rate                                    24914                       # Simulator op (including micro ops) rate (op/s)
host_seconds                                     6.64                       # Real time elapsed on the host
host_tick_rate                               72778542                       # Simulator tick rate (ticks/s)
sim_freq                                 1000000000000                       # Frequency of simulated ticks
sim_insts                                      164973                       # Number of instructions simulated
sim_ops                                        165355                       # Number of ops (including micro ops) simulated
sim_seconds                                  0.000483                       # Number of seconds simulated
sim_ticks                                   483034000                       # Number of ticks simulated
system.clk_domain.clock                          1000                       # Clock period in ticks
system.cpu00.Branches                           22355                       # Number of branches fetched
system.cpu00.committedInsts                    100001                       # Number of instructions committed
system.cpu00.committedOps                      100294                       # Number of ops (including micro ops) committed
system.cpu00.dtb.accesses                           0                       # DTB accesses
system.cpu00.dtb.hits                               0                       # DTB hits
system.cpu00.dtb.misses                             0                       # DTB misses
system.cpu00.dtb.pwrStateResidencyTicks::UNDEFINED    483034000                       # Cumulative time (in ticks) in various power states
system.cpu00.dtb.read_accesses                      0                       # DTB read accesses
system.cpu00.dtb.read_hits                          0                       # DTB read hits
system.cpu00.dtb.read_misses                        0                       # DTB read misses
system.cpu00.dtb.write_accesses                     0                       # DTB write accesses
system.cpu00.dtb.write_hits                         0                       # DTB write hits
system.cpu00.dtb.write_misses                       0                       # DTB write misses
system.cpu00.idle_fraction                   0.005141                       # Percentage of idle cycles
system.cpu00.itb.accesses                           0                       # DTB accesses
system.cpu00.itb.hits                               0                       # DTB hits
system.cpu00.itb.misses                             0                       # DTB misses
system.cpu00.itb.pwrStateResidencyTicks::UNDEFINED    483034000                       # Cumulative time (in ticks) in various power states
system.cpu00.itb.read_accesses                      0                       # DTB read accesses
system.cpu00.itb.read_hits                          0                       # DTB read hits
system.cpu00.itb.read_misses                        0                       # DTB read misses
system.cpu00.itb.write_accesses                     0                       # DTB write accesses
system.cpu00.itb.write_hits                         0                       # DTB write hits
system.cpu00.itb.write_misses                       0                       # DTB write misses
system.cpu00.not_idle_fraction               0.994859                       # Percentage of non-idle cycles
system.cpu00.numCycles                         966068                       # number of cpu cycles simulated
system.cpu00.numPwrStateTransitions                 2                       # Number of power state transitions
system.cpu00.numWorkItemsCompleted                  0                       # number of work items this cpu completed
system.cpu00.numWorkItemsStarted                    0                       # number of work items this cpu started
system.cpu00.num_busy_cycles             961101.000010                       # Number of busy cycles
system.cpu00.num_conditional_control_insts        15943                       # number of instructions that are conditional controls
system.cpu00.num_fp_alu_accesses                   12                       # Number of float alu accesses
system.cpu00.num_fp_insts                          12                       # number of float instructions
system.cpu00.num_fp_register_reads                 12                       # number of times the floating registers were read
system.cpu00.num_fp_register_writes                 0                       # number of times the floating registers were written
system.cpu00.num_func_calls                      6412                       # number of times a function call or return occured
system.cpu00.num_idle_cycles              4966.999990                       # Number of idle cycles
system.cpu00.num_int_alu_accesses               98837                       # Number of integer alu accesses
system.cpu00.num_int_insts                      98837                       # number of integer instructions
system.cpu00.num_int_register_reads            120854                       # number of times the integer registers were read
system.cpu00.num_int_register_writes            64474                       # number of times the integer registers were written
system.cpu00.num_load_insts                     20282                       # Number of load instructions
system.cpu00.num_mem_refs                       36539                       # number of memory refs
system.cpu00.num_store_insts                    16257                       # Number of store instructions
system.cpu00.num_vec_alu_accesses                   0                       # Number of vector alu accesses
system.cpu00.num_vec_insts                          0                       # number of vector instructions
system.cpu00.num_vec_register_reads                 0                       # number of times the vector registers were read
system.cpu00.num_vec_register_writes                0                       # number of times the vector registers were written
system.cpu00.op_class::No_OpClass                 860      0.86%      0.86% # Class of executed instruction
system.cpu00.op_class::IntAlu                   62932     62.70%     63.56% # Class of executed instruction
system.cpu00.op_class::IntMult                     30      0.03%     63.59% # Class of executed instruction
system.cpu00.op_class::IntDiv                       6      0.01%     63.59% # Class of executed instruction
system.cpu00.op_class::FloatAdd                     0      0.00%     63.59% # Class of executed instruction
system.cpu00.op_class::FloatCmp                     0      0.00%     63.59% # Class of executed instruction
system.cpu00.op_class::FloatCvt                     0      0.00%     63.59% # Class of executed instruction
system.cpu00.op_class::FloatMult                    0      0.00%     63.59% # Class of executed instruction
system.cpu00.op_class::FloatMultAcc                 0      0.00%     63.59% # Class of executed instruction
system.cpu00.op_class::FloatDiv                     0      0.00%     63.59% # Class of executed instruction
system.cpu00.op_class::FloatMisc                    0      0.00%     63.59% # Class of executed instruction
system.cpu00.op_class::FloatSqrt                    0      0.00%     63.59% # Class of executed instruction
system.cpu00.op_class::SimdAdd                      0      0.00%     63.59% # Class of executed instruction
system.cpu00.op_class::SimdAddAcc                   0      0.00%     63.59% # Class of executed instruction
system.cpu00.op_class::SimdAlu                      0      0.00%     63.59% # Class of executed instruction
system.cpu00.op_class::SimdCmp                      0      0.00%     63.59% # Class of executed instruction
system.cpu00.op_class::SimdCvt                      0      0.00%     63.59% # Class of executed instruction
system.cpu00.op_class::SimdMisc                     0      0.00%     63.59% # Class of executed instruction
system.cpu00.op_class::SimdMult                     0      0.00%     63.59% # Class of executed instruction
system.cpu00.op_class::SimdMultAcc                  0      0.00%     63.59% # Class of executed instruction
system.cpu00.op_class::SimdShift                    0      0.00%     63.59% # Class of executed instruction
system.cpu00.op_class::SimdShiftAcc                 0      0.00%     63.59% # Class of executed instruction
system.cpu00.op_class::SimdSqrt                     0      0.00%     63.59% # Class of executed instruction
system.cpu00.op_class::SimdFloatAdd                 0      0.00%     63.59% # Class of executed instruction
system.cpu00.op_class::SimdFloatAlu                 0      0.00%     63.59% # Class of executed instruction
system.cpu00.op_class::SimdFloatCmp                 0      0.00%     63.59% # Class of executed instruction
system.cpu00.op_class::SimdFloatCvt                 0      0.00%     63.59% # Class of executed instruction
system.cpu00.op_class::SimdFloatDiv                 0      0.00%     63.59% # Class of executed instruction
system.cpu00.op_class::SimdFloatMisc                0      0.00%     63.59% # Class of executed instruction
system.cpu00.op_class::SimdFloatMult                0      0.00%     63.59% # Class of executed instruction
system.cpu00.op_class::SimdFloatMultAcc             0      0.00%     63.59% # Class of executed instruction
system.cpu00.op_class::SimdFloatSqrt                0      0.00%     63.59% # Class of executed instruction
system.cpu00.op_class::SimdAes                      0      0.00%     63.59% # Class of executed instruction
system.cpu00.op_class::SimdAesMix                   0      0.00%     63.59% # Class of executed instruction
system.cpu00.op_class::SimdSha1Hash                 0      0.00%     63.59% # Class of executed instruction
system.cpu00.op_class::SimdSha1Hash2                0      0.00%     63.59% # Class of executed instruction
system.cpu00.op_class::SimdSha256Hash               0      0.00%     63.59% # Class of executed instruction
system.cpu00.op_class::SimdSha256Hash2              0      0.00%     63.59% # Class of executed instruction
system.cpu00.op_class::SimdShaSigma2                0      0.00%     63.59% # Class of executed instruction
system.cpu00.op_class::SimdShaSigma3                0      0.00%     63.59% # Class of executed instruction
system.cpu00.op_class::MemRead                  20567     20.49%     84.09% # Class of executed instruction
system.cpu00.op_class::MemWrite                 15960     15.90%     99.99% # Class of executed instruction
system.cpu00.op_class::FloatMemRead                 0      0.00%     99.99% # Class of executed instruction
system.cpu00.op_class::FloatMemWrite               12      0.01%    100.00% # Class of executed instruction
system.cpu00.op_class::IprAccess                    0      0.00%    100.00% # Class of executed instruction
system.cpu00.op_class::InstPrefetch                 0      0.00%    100.00% # Class of executed instruction
system.cpu00.op_class::total                   100367                       # Class of executed instruction
system.cpu00.pwrStateClkGateDist::samples            1                       # Distribution of time spent in the clock gated state
system.cpu00.pwrStateClkGateDist::mean        2483500                       # Distribution of time spent in the clock gated state
system.cpu00.pwrStateClkGateDist::1000-5e+10            1    100.00%    100.00% # Distribution of time spent in the clock gated state
system.cpu00.pwrStateClkGateDist::min_value      2483500                       # Distribution of time spent in the clock gated state
system.cpu00.pwrStateClkGateDist::max_value      2483500                       # Distribution of time spent in the clock gated state
system.cpu00.pwrStateClkGateDist::total             1                       # Distribution of time spent in the clock gated state
system.cpu00.pwrStateResidencyTicks::ON     480550500                       # Cumulative time (in ticks) in various power states
system.cpu00.pwrStateResidencyTicks::CLK_GATED      2483500                       # Cumulative time (in ticks) in various power states
system.cpu00.workload.numSyscalls                  72                       # Number of system calls
system.cpu01.Branches                             874                       # Number of branches fetched
system.cpu01.committedInsts                      4660                       # Number of instructions committed
system.cpu01.committedOps                        4666                       # Number of ops (including micro ops) committed
system.cpu01.dtb.accesses                           0                       # DTB accesses
system.cpu01.dtb.hits                               0                       # DTB hits
system.cpu01.dtb.misses                             0                       # DTB misses
system.cpu01.dtb.pwrStateResidencyTicks::UNDEFINED    483034000                       # Cumulative time (in ticks) in various power states
system.cpu01.dtb.read_accesses                      0                       # DTB read accesses
system.cpu01.dtb.read_hits                          0                       # DTB read hits
system.cpu01.dtb.read_misses                        0                       # DTB read misses
system.cpu01.dtb.write_accesses                     0                       # DTB write accesses
system.cpu01.dtb.write_hits                         0                       # DTB write hits
system.cpu01.dtb.write_misses                       0                       # DTB write misses
system.cpu01.idle_fraction                   0.977379                       # Percentage of idle cycles
system.cpu01.itb.accesses                           0                       # DTB accesses
system.cpu01.itb.hits                               0                       # DTB hits
system.cpu01.itb.misses                             0                       # DTB misses
system.cpu01.itb.pwrStateResidencyTicks::UNDEFINED    483034000                       # Cumulative time (in ticks) in various power states
system.cpu01.itb.read_accesses                      0                       # DTB read accesses
system.cpu01.itb.read_hits                          0                       # DTB read hits
system.cpu01.itb.read_misses                        0                       # DTB read misses
system.cpu01.itb.write_accesses                     0                       # DTB write accesses
system.cpu01.itb.write_hits                         0                       # DTB write hits
system.cpu01.itb.write_misses                       0                       # DTB write misses
system.cpu01.not_idle_fraction               0.022621                       # Percentage of non-idle cycles
system.cpu01.numCycles                         966068                       # number of cpu cycles simulated
system.cpu01.numPwrStateTransitions                 2                       # Number of power state transitions
system.cpu01.numWorkItemsCompleted                  0                       # number of work items this cpu completed
system.cpu01.numWorkItemsStarted                    0                       # number of work items this cpu started
system.cpu01.num_busy_cycles             21853.001955                       # Number of busy cycles
system.cpu01.num_conditional_control_insts          457                       # number of instructions that are conditional controls
system.cpu01.num_fp_alu_accesses                   12                       # Number of float alu accesses
system.cpu01.num_fp_insts                          12                       # number of float instructions
system.cpu01.num_fp_register_reads                 12                       # number of times the floating registers were read
system.cpu01.num_fp_register_writes                 0                       # number of times the floating registers were written
system.cpu01.num_func_calls                       417                       # number of times a function call or return occured
system.cpu01.num_idle_cycles             944214.998045                       # Number of idle cycles
system.cpu01.num_int_alu_accesses                4585                       # Number of integer alu accesses
system.cpu01.num_int_insts                       4585                       # number of integer instructions
system.cpu01.num_int_register_reads              5282                       # number of times the integer registers were read
system.cpu01.num_int_register_writes             3399                       # number of times the integer registers were written
system.cpu01.num_load_insts                      1137                       # Number of load instructions
system.cpu01.num_mem_refs                        1689                       # number of memory refs
system.cpu01.num_store_insts                      552                       # Number of store instructions
system.cpu01.num_vec_alu_accesses                   0                       # Number of vector alu accesses
system.cpu01.num_vec_insts                          0                       # number of vector instructions
system.cpu01.num_vec_register_reads                 0                       # number of times the vector registers were read
system.cpu01.num_vec_register_writes                0                       # number of times the vector registers were written
system.cpu01.op_class::No_OpClass                  10      0.21%      0.21% # Class of executed instruction
system.cpu01.op_class::IntAlu                    2966     63.54%     63.75% # Class of executed instruction
system.cpu01.op_class::IntMult                      1      0.02%     63.77% # Class of executed instruction
system.cpu01.op_class::IntDiv                       2      0.04%     63.82% # Class of executed instruction
system.cpu01.op_class::FloatAdd                     0      0.00%     63.82% # Class of executed instruction
system.cpu01.op_class::FloatCmp                     0      0.00%     63.82% # Class of executed instruction
system.cpu01.op_class::FloatCvt                     0      0.00%     63.82% # Class of executed instruction
system.cpu01.op_class::FloatMult                    0      0.00%     63.82% # Class of executed instruction
system.cpu01.op_class::FloatMultAcc                 0      0.00%     63.82% # Class of executed instruction
system.cpu01.op_class::FloatDiv                     0      0.00%     63.82% # Class of executed instruction
system.cpu01.op_class::FloatMisc                    0      0.00%     63.82% # Class of executed instruction
system.cpu01.op_class::FloatSqrt                    0      0.00%     63.82% # Class of executed instruction
system.cpu01.op_class::SimdAdd                      0      0.00%     63.82% # Class of executed instruction
system.cpu01.op_class::SimdAddAcc                   0      0.00%     63.82% # Class of executed instruction
system.cpu01.op_class::SimdAlu                      0      0.00%     63.82% # Class of executed instruction
system.cpu01.op_class::SimdCmp                      0      0.00%     63.82% # Class of executed instruction
system.cpu01.op_class::SimdCvt                      0      0.00%     63.82% # Class of executed instruction
system.cpu01.op_class::SimdMisc                     0      0.00%     63.82% # Class of executed instruction
system.cpu01.op_class::SimdMult                     0      0.00%     63.82% # Class of executed instruction
system.cpu01.op_class::SimdMultAcc                  0      0.00%     63.82% # Class of executed instruction
system.cpu01.op_class::SimdShift                    0      0.00%     63.82% # Class of executed instruction
system.cpu01.op_class::SimdShiftAcc                 0      0.00%     63.82% # Class of executed instruction
system.cpu01.op_class::SimdSqrt                     0      0.00%     63.82% # Class of executed instruction
system.cpu01.op_class::SimdFloatAdd                 0      0.00%     63.82% # Class of executed instruction
system.cpu01.op_class::SimdFloatAlu                 0      0.00%     63.82% # Class of executed instruction
system.cpu01.op_class::SimdFloatCmp                 0      0.00%     63.82% # Class of executed instruction
system.cpu01.op_class::SimdFloatCvt                 0      0.00%     63.82% # Class of executed instruction
system.cpu01.op_class::SimdFloatDiv                 0      0.00%     63.82% # Class of executed instruction
system.cpu01.op_class::SimdFloatMisc                0      0.00%     63.82% # Class of executed instruction
system.cpu01.op_class::SimdFloatMult                0      0.00%     63.82% # Class of executed instruction
system.cpu01.op_class::SimdFloatMultAcc             0      0.00%     63.82% # Class of executed instruction
system.cpu01.op_class::SimdFloatSqrt                0      0.00%     63.82% # Class of executed instruction
system.cpu01.op_class::SimdAes                      0      0.00%     63.82% # Class of executed instruction
system.cpu01.op_class::SimdAesMix                   0      0.00%     63.82% # Class of executed instruction
system.cpu01.op_class::SimdSha1Hash                 0      0.00%     63.82% # Class of executed instruction
system.cpu01.op_class::SimdSha1Hash2                0      0.00%     63.82% # Class of executed instruction
system.cpu01.op_class::SimdSha256Hash               0      0.00%     63.82% # Class of executed instruction
system.cpu01.op_class::SimdSha256Hash2              0      0.00%     63.82% # Class of executed instruction
system.cpu01.op_class::SimdShaSigma2                0      0.00%     63.82% # Class of executed instruction
system.cpu01.op_class::SimdShaSigma3                0      0.00%     63.82% # Class of executed instruction
system.cpu01.op_class::MemRead                   1141     24.44%     88.26% # Class of executed instruction
system.cpu01.op_class::MemWrite                   536     11.48%     99.74% # Class of executed instruction
system.cpu01.op_class::FloatMemRead                 0      0.00%     99.74% # Class of executed instruction
system.cpu01.op_class::FloatMemWrite               12      0.26%    100.00% # Class of executed instruction
system.cpu01.op_class::IprAccess                    0      0.00%    100.00% # Class of executed instruction
system.cpu01.op_class::InstPrefetch                 0      0.00%    100.00% # Class of executed instruction
system.cpu01.op_class::total                     4668                       # Class of executed instruction
system.cpu01.pwrStateClkGateDist::samples            1                       # Distribution of time spent in the clock gated state
system.cpu01.pwrStateClkGateDist::mean       89602500                       # Distribution of time spent in the clock gated state
system.cpu01.pwrStateClkGateDist::1000-5e+10            1    100.00%    100.00% # Distribution of time spent in the clock gated state
system.cpu01.pwrStateClkGateDist::min_value     89602500                       # Distribution of time spent in the clock gated state
system.cpu01.pwrStateClkGateDist::max_value     89602500                       # Distribution of time spent in the clock gated state
system.cpu01.pwrStateClkGateDist::total             1                       # Distribution of time spent in the clock gated state
system.cpu01.pwrStateResidencyTicks::ON     393431500                       # Cumulative time (in ticks) in various power states
system.cpu01.pwrStateResidencyTicks::CLK_GATED     89602500                       # Cumulative time (in ticks) in various power states
system.cpu02.Branches                             871                       # Number of branches fetched
system.cpu02.committedInsts                      4640                       # Number of instructions committed
system.cpu02.committedOps                        4646                       # Number of ops (including micro ops) committed
system.cpu02.dtb.accesses                           0                       # DTB accesses
system.cpu02.dtb.hits                               0                       # DTB hits
system.cpu02.dtb.misses                             0                       # DTB misses
system.cpu02.dtb.pwrStateResidencyTicks::UNDEFINED    483034000                       # Cumulative time (in ticks) in various power states
system.cpu02.dtb.read_accesses                      0                       # DTB read accesses
system.cpu02.dtb.read_hits                          0                       # DTB read hits
system.cpu02.dtb.read_misses                        0                       # DTB read misses
system.cpu02.dtb.write_accesses                     0                       # DTB write accesses
system.cpu02.dtb.write_hits                         0                       # DTB write hits
system.cpu02.dtb.write_misses                       0                       # DTB write misses
system.cpu02.idle_fraction                   0.980367                       # Percentage of idle cycles
system.cpu02.itb.accesses                           0                       # DTB accesses
system.cpu02.itb.hits                               0                       # DTB hits
system.cpu02.itb.misses                             0                       # DTB misses
system.cpu02.itb.pwrStateResidencyTicks::UNDEFINED    483034000                       # Cumulative time (in ticks) in various power states
system.cpu02.itb.read_accesses                      0                       # DTB read accesses
system.cpu02.itb.read_hits                          0                       # DTB read hits
system.cpu02.itb.read_misses                        0                       # DTB read misses
system.cpu02.itb.write_accesses                     0                       # DTB write accesses
system.cpu02.itb.write_hits                         0                       # DTB write hits
system.cpu02.itb.write_misses                       0                       # DTB write misses
system.cpu02.not_idle_fraction               0.019633                       # Percentage of non-idle cycles
system.cpu02.numCycles                         966067                       # number of cpu cycles simulated
system.cpu02.numPwrStateTransitions                 2                       # Number of power state transitions
system.cpu02.numWorkItemsCompleted                  0                       # number of work items this cpu completed
system.cpu02.numWorkItemsStarted                    0                       # number of work items this cpu started
system.cpu02.num_busy_cycles             18966.982328                       # Number of busy cycles
system.cpu02.num_conditional_control_insts          456                       # number of instructions that are conditional controls
system.cpu02.num_fp_alu_accesses                   12                       # Number of float alu accesses
system.cpu02.num_fp_insts                          12                       # number of float instructions
system.cpu02.num_fp_register_reads                 12                       # number of times the floating registers were read
system.cpu02.num_fp_register_writes                 0                       # number of times the floating registers were written
system.cpu02.num_func_calls                       415                       # number of times a function call or return occured
system.cpu02.num_idle_cycles             947100.017672                       # Number of idle cycles
system.cpu02.num_int_alu_accesses                4566                       # Number of integer alu accesses
system.cpu02.num_int_insts                       4566                       # number of integer instructions
system.cpu02.num_int_register_reads              5263                       # number of times the integer registers were read
system.cpu02.num_int_register_writes             3384                       # number of times the integer registers were written
system.cpu02.num_load_insts                      1134                       # Number of load instructions
system.cpu02.num_mem_refs                        1684                       # number of memory refs
system.cpu02.num_store_insts                      550                       # Number of store instructions
system.cpu02.num_vec_alu_accesses                   0                       # Number of vector alu accesses
system.cpu02.num_vec_insts                          0                       # number of vector instructions
system.cpu02.num_vec_register_reads                 0                       # number of times the vector registers were read
system.cpu02.num_vec_register_writes                0                       # number of times the vector registers were written
system.cpu02.op_class::No_OpClass                  10      0.22%      0.22% # Class of executed instruction
system.cpu02.op_class::IntAlu                    2951     63.49%     63.70% # Class of executed instruction
system.cpu02.op_class::IntMult                      1      0.02%     63.73% # Class of executed instruction
system.cpu02.op_class::IntDiv                       2      0.04%     63.77% # Class of executed instruction
system.cpu02.op_class::FloatAdd                     0      0.00%     63.77% # Class of executed instruction
system.cpu02.op_class::FloatCmp                     0      0.00%     63.77% # Class of executed instruction
system.cpu02.op_class::FloatCvt                     0      0.00%     63.77% # Class of executed instruction
system.cpu02.op_class::FloatMult                    0      0.00%     63.77% # Class of executed instruction
system.cpu02.op_class::FloatMultAcc                 0      0.00%     63.77% # Class of executed instruction
system.cpu02.op_class::FloatDiv                     0      0.00%     63.77% # Class of executed instruction
system.cpu02.op_class::FloatMisc                    0      0.00%     63.77% # Class of executed instruction
system.cpu02.op_class::FloatSqrt                    0      0.00%     63.77% # Class of executed instruction
system.cpu02.op_class::SimdAdd                      0      0.00%     63.77% # Class of executed instruction
system.cpu02.op_class::SimdAddAcc                   0      0.00%     63.77% # Class of executed instruction
system.cpu02.op_class::SimdAlu                      0      0.00%     63.77% # Class of executed instruction
system.cpu02.op_class::SimdCmp                      0      0.00%     63.77% # Class of executed instruction
system.cpu02.op_class::SimdCvt                      0      0.00%     63.77% # Class of executed instruction
system.cpu02.op_class::SimdMisc                     0      0.00%     63.77% # Class of executed instruction
system.cpu02.op_class::SimdMult                     0      0.00%     63.77% # Class of executed instruction
system.cpu02.op_class::SimdMultAcc                  0      0.00%     63.77% # Class of executed instruction
system.cpu02.op_class::SimdShift                    0      0.00%     63.77% # Class of executed instruction
system.cpu02.op_class::SimdShiftAcc                 0      0.00%     63.77% # Class of executed instruction
system.cpu02.op_class::SimdSqrt                     0      0.00%     63.77% # Class of executed instruction
system.cpu02.op_class::SimdFloatAdd                 0      0.00%     63.77% # Class of executed instruction
system.cpu02.op_class::SimdFloatAlu                 0      0.00%     63.77% # Class of executed instruction
system.cpu02.op_class::SimdFloatCmp                 0      0.00%     63.77% # Class of executed instruction
system.cpu02.op_class::SimdFloatCvt                 0      0.00%     63.77% # Class of executed instruction
system.cpu02.op_class::SimdFloatDiv                 0      0.00%     63.77% # Class of executed instruction
system.cpu02.op_class::SimdFloatMisc                0      0.00%     63.77% # Class of executed instruction
system.cpu02.op_class::SimdFloatMult                0      0.00%     63.77% # Class of executed instruction
system.cpu02.op_class::SimdFloatMultAcc             0      0.00%     63.77% # Class of executed instruction
system.cpu02.op_class::SimdFloatSqrt                0      0.00%     63.77% # Class of executed instruction
system.cpu02.op_class::SimdAes                      0      0.00%     63.77% # Class of executed instruction
system.cpu02.op_class::SimdAesMix                   0      0.00%     63.77% # Class of executed instruction
system.cpu02.op_class::SimdSha1Hash                 0      0.00%     63.77% # Class of executed instruction
system.cpu02.op_class::SimdSha1Hash2                0      0.00%     63.77% # Class of executed instruction
system.cpu02.op_class::SimdSha256Hash               0      0.00%     63.77% # Class of executed instruction
system.cpu02.op_class::SimdSha256Hash2              0      0.00%     63.77% # Class of executed instruction
system.cpu02.op_class::SimdShaSigma2                0      0.00%     63.77% # Class of executed instruction
system.cpu02.op_class::SimdShaSigma3                0      0.00%     63.77% # Class of executed instruction
system.cpu02.op_class::MemRead                   1138     24.48%     88.25% # Class of executed instruction
system.cpu02.op_class::MemWrite                   534     11.49%     99.74% # Class of executed instruction
system.cpu02.op_class::FloatMemRead                 0      0.00%     99.74% # Class of executed instruction
system.cpu02.op_class::FloatMemWrite               12      0.26%    100.00% # Class of executed instruction
system.cpu02.op_class::IprAccess                    0      0.00%    100.00% # Class of executed instruction
system.cpu02.op_class::InstPrefetch                 0      0.00%    100.00% # Class of executed instruction
system.cpu02.op_class::total                     4648                       # Class of executed instruction
system.cpu02.pwrStateClkGateDist::samples            1                       # Distribution of time spent in the clock gated state
system.cpu02.pwrStateClkGateDist::mean       84977500                       # Distribution of time spent in the clock gated state
system.cpu02.pwrStateClkGateDist::1000-5e+10            1    100.00%    100.00% # Distribution of time spent in the clock gated state
system.cpu02.pwrStateClkGateDist::min_value     84977500                       # Distribution of time spent in the clock gated state
system.cpu02.pwrStateClkGateDist::max_value     84977500                       # Distribution of time spent in the clock gated state
system.cpu02.pwrStateClkGateDist::total             1                       # Distribution of time spent in the clock gated state
system.cpu02.pwrStateResidencyTicks::ON     398056500                       # Cumulative time (in ticks) in various power states
system.cpu02.pwrStateResidencyTicks::CLK_GATED     84977500                       # Cumulative time (in ticks) in various power states
system.cpu03.Branches                             879                       # Number of branches fetched
system.cpu03.committedInsts                      4645                       # Number of instructions committed
system.cpu03.committedOps                        4651                       # Number of ops (including micro ops) committed
system.cpu03.dtb.accesses                           0                       # DTB accesses
system.cpu03.dtb.hits                               0                       # DTB hits
system.cpu03.dtb.misses                             0                       # DTB misses
system.cpu03.dtb.pwrStateResidencyTicks::UNDEFINED    483034000                       # Cumulative time (in ticks) in various power states
system.cpu03.dtb.read_accesses                      0                       # DTB read accesses
system.cpu03.dtb.read_hits                          0                       # DTB read hits
system.cpu03.dtb.read_misses                        0                       # DTB read misses
system.cpu03.dtb.write_accesses                     0                       # DTB write accesses
system.cpu03.dtb.write_hits                         0                       # DTB write hits
system.cpu03.dtb.write_misses                       0                       # DTB write misses
system.cpu03.idle_fraction                   0.980656                       # Percentage of idle cycles
system.cpu03.itb.accesses                           0                       # DTB accesses
system.cpu03.itb.hits                               0                       # DTB hits
system.cpu03.itb.misses                             0                       # DTB misses
system.cpu03.itb.pwrStateResidencyTicks::UNDEFINED    483034000                       # Cumulative time (in ticks) in various power states
system.cpu03.itb.read_accesses                      0                       # DTB read accesses
system.cpu03.itb.read_hits                          0                       # DTB read hits
system.cpu03.itb.read_misses                        0                       # DTB read misses
system.cpu03.itb.write_accesses                     0                       # DTB write accesses
system.cpu03.itb.write_hits                         0                       # DTB write hits
system.cpu03.itb.write_misses                       0                       # DTB write misses
system.cpu03.not_idle_fraction               0.019344                       # Percentage of non-idle cycles
system.cpu03.numCycles                         966067                       # number of cpu cycles simulated
system.cpu03.numPwrStateTransitions                 2                       # Number of power state transitions
system.cpu03.numWorkItemsCompleted                  0                       # number of work items this cpu completed
system.cpu03.numWorkItemsStarted                    0                       # number of work items this cpu started
system.cpu03.num_busy_cycles             18687.982617                       # Number of busy cycles
system.cpu03.num_conditional_control_insts          447                       # number of instructions that are conditional controls
system.cpu03.num_fp_alu_accesses                   12                       # Number of float alu accesses
system.cpu03.num_fp_insts                          12                       # number of float instructions
system.cpu03.num_fp_register_reads                 12                       # number of times the floating registers were read
system.cpu03.num_fp_register_writes                 0                       # number of times the floating registers were written
system.cpu03.num_func_calls                       432                       # number of times a function call or return occured
system.cpu03.num_idle_cycles             947379.017383                       # Number of idle cycles
system.cpu03.num_int_alu_accesses                4555                       # Number of integer alu accesses
system.cpu03.num_int_insts                       4555                       # number of integer instructions
system.cpu03.num_int_register_reads              5255                       # number of times the integer registers were read
system.cpu03.num_int_register_writes             3378                       # number of times the integer registers were written
system.cpu03.num_load_insts                      1134                       # Number of load instructions
system.cpu03.num_mem_refs                        1683                       # number of memory refs
system.cpu03.num_store_insts                      549                       # Number of store instructions
system.cpu03.num_vec_alu_accesses                   0                       # Number of vector alu accesses
system.cpu03.num_vec_insts                          0                       # number of vector instructions
system.cpu03.num_vec_register_reads                 0                       # number of times the vector registers were read
system.cpu03.num_vec_register_writes                0                       # number of times the vector registers were written
system.cpu03.op_class::No_OpClass                  10      0.21%      0.21% # Class of executed instruction
system.cpu03.op_class::IntAlu                    2957     63.55%     63.77% # Class of executed instruction
system.cpu03.op_class::IntMult                      1      0.02%     63.79% # Class of executed instruction
system.cpu03.op_class::IntDiv                       2      0.04%     63.83% # Class of executed instruction
system.cpu03.op_class::FloatAdd                     0      0.00%     63.83% # Class of executed instruction
system.cpu03.op_class::FloatCmp                     0      0.00%     63.83% # Class of executed instruction
system.cpu03.op_class::FloatCvt                     0      0.00%     63.83% # Class of executed instruction
system.cpu03.op_class::FloatMult                    0      0.00%     63.83% # Class of executed instruction
system.cpu03.op_class::FloatMultAcc                 0      0.00%     63.83% # Class of executed instruction
system.cpu03.op_class::FloatDiv                     0      0.00%     63.83% # Class of executed instruction
system.cpu03.op_class::FloatMisc                    0      0.00%     63.83% # Class of executed instruction
system.cpu03.op_class::FloatSqrt                    0      0.00%     63.83% # Class of executed instruction
system.cpu03.op_class::SimdAdd                      0      0.00%     63.83% # Class of executed instruction
system.cpu03.op_class::SimdAddAcc                   0      0.00%     63.83% # Class of executed instruction
system.cpu03.op_class::SimdAlu                      0      0.00%     63.83% # Class of executed instruction
system.cpu03.op_class::SimdCmp                      0      0.00%     63.83% # Class of executed instruction
system.cpu03.op_class::SimdCvt                      0      0.00%     63.83% # Class of executed instruction
system.cpu03.op_class::SimdMisc                     0      0.00%     63.83% # Class of executed instruction
system.cpu03.op_class::SimdMult                     0      0.00%     63.83% # Class of executed instruction
system.cpu03.op_class::SimdMultAcc                  0      0.00%     63.83% # Class of executed instruction
system.cpu03.op_class::SimdShift                    0      0.00%     63.83% # Class of executed instruction
system.cpu03.op_class::SimdShiftAcc                 0      0.00%     63.83% # Class of executed instruction
system.cpu03.op_class::SimdSqrt                     0      0.00%     63.83% # Class of executed instruction
system.cpu03.op_class::SimdFloatAdd                 0      0.00%     63.83% # Class of executed instruction
system.cpu03.op_class::SimdFloatAlu                 0      0.00%     63.83% # Class of executed instruction
system.cpu03.op_class::SimdFloatCmp                 0      0.00%     63.83% # Class of executed instruction
system.cpu03.op_class::SimdFloatCvt                 0      0.00%     63.83% # Class of executed instruction
system.cpu03.op_class::SimdFloatDiv                 0      0.00%     63.83% # Class of executed instruction
system.cpu03.op_class::SimdFloatMisc                0      0.00%     63.83% # Class of executed instruction
system.cpu03.op_class::SimdFloatMult                0      0.00%     63.83% # Class of executed instruction
system.cpu03.op_class::SimdFloatMultAcc             0      0.00%     63.83% # Class of executed instruction
system.cpu03.op_class::SimdFloatSqrt                0      0.00%     63.83% # Class of executed instruction
system.cpu03.op_class::SimdAes                      0      0.00%     63.83% # Class of executed instruction
system.cpu03.op_class::SimdAesMix                   0      0.00%     63.83% # Class of executed instruction
system.cpu03.op_class::SimdSha1Hash                 0      0.00%     63.83% # Class of executed instruction
system.cpu03.op_class::SimdSha1Hash2                0      0.00%     63.83% # Class of executed instruction
system.cpu03.op_class::SimdSha256Hash               0      0.00%     63.83% # Class of executed instruction
system.cpu03.op_class::SimdSha256Hash2              0      0.00%     63.83% # Class of executed instruction
system.cpu03.op_class::SimdShaSigma2                0      0.00%     63.83% # Class of executed instruction
system.cpu03.op_class::SimdShaSigma3                0      0.00%     63.83% # Class of executed instruction
system.cpu03.op_class::MemRead                   1138     24.46%     88.29% # Class of executed instruction
system.cpu03.op_class::MemWrite                   533     11.45%     99.74% # Class of executed instruction
system.cpu03.op_class::FloatMemRead                 0      0.00%     99.74% # Class of executed instruction
system.cpu03.op_class::FloatMemWrite               12      0.26%    100.00% # Class of executed instruction
system.cpu03.op_class::IprAccess                    0      0.00%    100.00% # Class of executed instruction
system.cpu03.op_class::InstPrefetch                 0      0.00%    100.00% # Class of executed instruction
system.cpu03.op_class::total                     4653                       # Class of executed instruction
system.cpu03.pwrStateClkGateDist::samples            1                       # Distribution of time spent in the clock gated state
system.cpu03.pwrStateClkGateDist::mean       78734500                       # Distribution of time spent in the clock gated state
system.cpu03.pwrStateClkGateDist::1000-5e+10            1    100.00%    100.00% # Distribution of time spent in the clock gated state
system.cpu03.pwrStateClkGateDist::min_value     78734500                       # Distribution of time spent in the clock gated state
system.cpu03.pwrStateClkGateDist::max_value     78734500                       # Distribution of time spent in the clock gated state
system.cpu03.pwrStateClkGateDist::total             1                       # Distribution of time spent in the clock gated state
system.cpu03.pwrStateResidencyTicks::ON     404299500                       # Cumulative time (in ticks) in various power states
system.cpu03.pwrStateResidencyTicks::CLK_GATED     78734500                       # Cumulative time (in ticks) in various power states
system.cpu04.Branches                             872                       # Number of branches fetched
system.cpu04.committedInsts                      4606                       # Number of instructions committed
system.cpu04.committedOps                        4612                       # Number of ops (including micro ops) committed
system.cpu04.dtb.accesses                           0                       # DTB accesses
system.cpu04.dtb.hits                               0                       # DTB hits
system.cpu04.dtb.misses                             0                       # DTB misses
system.cpu04.dtb.pwrStateResidencyTicks::UNDEFINED    483034000                       # Cumulative time (in ticks) in various power states
system.cpu04.dtb.read_accesses                      0                       # DTB read accesses
system.cpu04.dtb.read_hits                          0                       # DTB read hits
system.cpu04.dtb.read_misses                        0                       # DTB read misses
system.cpu04.dtb.write_accesses                     0                       # DTB write accesses
system.cpu04.dtb.write_hits                         0                       # DTB write hits
system.cpu04.dtb.write_misses                       0                       # DTB write misses
system.cpu04.idle_fraction                   0.980531                       # Percentage of idle cycles
system.cpu04.itb.accesses                           0                       # DTB accesses
system.cpu04.itb.hits                               0                       # DTB hits
system.cpu04.itb.misses                             0                       # DTB misses
system.cpu04.itb.pwrStateResidencyTicks::UNDEFINED    483034000                       # Cumulative time (in ticks) in various power states
system.cpu04.itb.read_accesses                      0                       # DTB read accesses
system.cpu04.itb.read_hits                          0                       # DTB read hits
system.cpu04.itb.read_misses                        0                       # DTB read misses
system.cpu04.itb.write_accesses                     0                       # DTB write accesses
system.cpu04.itb.write_hits                         0                       # DTB write hits
system.cpu04.itb.write_misses                       0                       # DTB write misses
system.cpu04.not_idle_fraction               0.019469                       # Percentage of non-idle cycles
system.cpu04.numCycles                         966068                       # number of cpu cycles simulated
system.cpu04.numPwrStateTransitions                 2                       # Number of power state transitions
system.cpu04.numWorkItemsCompleted                  0                       # number of work items this cpu completed
system.cpu04.numWorkItemsStarted                    0                       # number of work items this cpu started
system.cpu04.num_busy_cycles             18808.001961                       # Number of busy cycles
system.cpu04.num_conditional_control_insts          441                       # number of instructions that are conditional controls
system.cpu04.num_fp_alu_accesses                   12                       # Number of float alu accesses
system.cpu04.num_fp_insts                          12                       # number of float instructions
system.cpu04.num_fp_register_reads                 12                       # number of times the floating registers were read
system.cpu04.num_fp_register_writes                 0                       # number of times the floating registers were written
system.cpu04.num_func_calls                       431                       # number of times a function call or return occured
system.cpu04.num_idle_cycles             947259.998039                       # Number of idle cycles
system.cpu04.num_int_alu_accesses                4514                       # Number of integer alu accesses
system.cpu04.num_int_insts                       4514                       # number of integer instructions
system.cpu04.num_int_register_reads              5208                       # number of times the integer registers were read
system.cpu04.num_int_register_writes             3349                       # number of times the integer registers were written
system.cpu04.num_load_insts                      1126                       # Number of load instructions
system.cpu04.num_mem_refs                        1670                       # number of memory refs
system.cpu04.num_store_insts                      544                       # Number of store instructions
system.cpu04.num_vec_alu_accesses                   0                       # Number of vector alu accesses
system.cpu04.num_vec_insts                          0                       # number of vector instructions
system.cpu04.num_vec_register_reads                 0                       # number of times the vector registers were read
system.cpu04.num_vec_register_writes                0                       # number of times the vector registers were written
system.cpu04.op_class::No_OpClass                  10      0.22%      0.22% # Class of executed instruction
system.cpu04.op_class::IntAlu                    2931     63.52%     63.74% # Class of executed instruction
system.cpu04.op_class::IntMult                      1      0.02%     63.76% # Class of executed instruction
system.cpu04.op_class::IntDiv                       2      0.04%     63.81% # Class of executed instruction
system.cpu04.op_class::FloatAdd                     0      0.00%     63.81% # Class of executed instruction
system.cpu04.op_class::FloatCmp                     0      0.00%     63.81% # Class of executed instruction
system.cpu04.op_class::FloatCvt                     0      0.00%     63.81% # Class of executed instruction
system.cpu04.op_class::FloatMult                    0      0.00%     63.81% # Class of executed instruction
system.cpu04.op_class::FloatMultAcc                 0      0.00%     63.81% # Class of executed instruction
system.cpu04.op_class::FloatDiv                     0      0.00%     63.81% # Class of executed instruction
system.cpu04.op_class::FloatMisc                    0      0.00%     63.81% # Class of executed instruction
system.cpu04.op_class::FloatSqrt                    0      0.00%     63.81% # Class of executed instruction
system.cpu04.op_class::SimdAdd                      0      0.00%     63.81% # Class of executed instruction
system.cpu04.op_class::SimdAddAcc                   0      0.00%     63.81% # Class of executed instruction
system.cpu04.op_class::SimdAlu                      0      0.00%     63.81% # Class of executed instruction
system.cpu04.op_class::SimdCmp                      0      0.00%     63.81% # Class of executed instruction
system.cpu04.op_class::SimdCvt                      0      0.00%     63.81% # Class of executed instruction
system.cpu04.op_class::SimdMisc                     0      0.00%     63.81% # Class of executed instruction
system.cpu04.op_class::SimdMult                     0      0.00%     63.81% # Class of executed instruction
system.cpu04.op_class::SimdMultAcc                  0      0.00%     63.81% # Class of executed instruction
system.cpu04.op_class::SimdShift                    0      0.00%     63.81% # Class of executed instruction
system.cpu04.op_class::SimdShiftAcc                 0      0.00%     63.81% # Class of executed instruction
system.cpu04.op_class::SimdSqrt                     0      0.00%     63.81% # Class of executed instruction
system.cpu04.op_class::SimdFloatAdd                 0      0.00%     63.81% # Class of executed instruction
system.cpu04.op_class::SimdFloatAlu                 0      0.00%     63.81% # Class of executed instruction
system.cpu04.op_class::SimdFloatCmp                 0      0.00%     63.81% # Class of executed instruction
system.cpu04.op_class::SimdFloatCvt                 0      0.00%     63.81% # Class of executed instruction
system.cpu04.op_class::SimdFloatDiv                 0      0.00%     63.81% # Class of executed instruction
system.cpu04.op_class::SimdFloatMisc                0      0.00%     63.81% # Class of executed instruction
system.cpu04.op_class::SimdFloatMult                0      0.00%     63.81% # Class of executed instruction
system.cpu04.op_class::SimdFloatMultAcc             0      0.00%     63.81% # Class of executed instruction
system.cpu04.op_class::SimdFloatSqrt                0      0.00%     63.81% # Class of executed instruction
system.cpu04.op_class::SimdAes                      0      0.00%     63.81% # Class of executed instruction
system.cpu04.op_class::SimdAesMix                   0      0.00%     63.81% # Class of executed instruction
system.cpu04.op_class::SimdSha1Hash                 0      0.00%     63.81% # Class of executed instruction
system.cpu04.op_class::SimdSha1Hash2                0      0.00%     63.81% # Class of executed instruction
system.cpu04.op_class::SimdSha256Hash               0      0.00%     63.81% # Class of executed instruction
system.cpu04.op_class::SimdSha256Hash2              0      0.00%     63.81% # Class of executed instruction
system.cpu04.op_class::SimdShaSigma2                0      0.00%     63.81% # Class of executed instruction
system.cpu04.op_class::SimdShaSigma3                0      0.00%     63.81% # Class of executed instruction
system.cpu04.op_class::MemRead                   1130     24.49%     88.30% # Class of executed instruction
system.cpu04.op_class::MemWrite                   528     11.44%     99.74% # Class of executed instruction
system.cpu04.op_class::FloatMemRead                 0      0.00%     99.74% # Class of executed instruction
system.cpu04.op_class::FloatMemWrite               12      0.26%    100.00% # Class of executed instruction
system.cpu04.op_class::IprAccess                    0      0.00%    100.00% # Class of executed instruction
system.cpu04.op_class::InstPrefetch                 0      0.00%    100.00% # Class of executed instruction
system.cpu04.op_class::total                     4614                       # Class of executed instruction
system.cpu04.pwrStateClkGateDist::samples            1                       # Distribution of time spent in the clock gated state
system.cpu04.pwrStateClkGateDist::mean       71003500                       # Distribution of time spent in the clock gated state
system.cpu04.pwrStateClkGateDist::1000-5e+10            1    100.00%    100.00% # Distribution of time spent in the clock gated state
system.cpu04.pwrStateClkGateDist::min_value     71003500                       # Distribution of time spent in the clock gated state
system.cpu04.pwrStateClkGateDist::max_value     71003500                       # Distribution of time spent in the clock gated state
system.cpu04.pwrStateClkGateDist::total             1                       # Distribution of time spent in the clock gated state
system.cpu04.pwrStateResidencyTicks::ON     412030500                       # Cumulative time (in ticks) in various power states
system.cpu04.pwrStateResidencyTicks::CLK_GATED     71003500                       # Cumulative time (in ticks) in various power states
system.cpu05.Branches                             873                       # Number of branches fetched
system.cpu05.committedInsts                      4633                       # Number of instructions committed
system.cpu05.committedOps                        4639                       # Number of ops (including micro ops) committed
system.cpu05.dtb.accesses                           0                       # DTB accesses
system.cpu05.dtb.hits                               0                       # DTB hits
system.cpu05.dtb.misses                             0                       # DTB misses
system.cpu05.dtb.pwrStateResidencyTicks::UNDEFINED    483034000                       # Cumulative time (in ticks) in various power states
system.cpu05.dtb.read_accesses                      0                       # DTB read accesses
system.cpu05.dtb.read_hits                          0                       # DTB read hits
system.cpu05.dtb.read_misses                        0                       # DTB read misses
system.cpu05.dtb.write_accesses                     0                       # DTB write accesses
system.cpu05.dtb.write_hits                         0                       # DTB write hits
system.cpu05.dtb.write_misses                       0                       # DTB write misses
system.cpu05.idle_fraction                   0.980866                       # Percentage of idle cycles
system.cpu05.itb.accesses                           0                       # DTB accesses
system.cpu05.itb.hits                               0                       # DTB hits
system.cpu05.itb.misses                             0                       # DTB misses
system.cpu05.itb.pwrStateResidencyTicks::UNDEFINED    483034000                       # Cumulative time (in ticks) in various power states
system.cpu05.itb.read_accesses                      0                       # DTB read accesses
system.cpu05.itb.read_hits                          0                       # DTB read hits
system.cpu05.itb.read_misses                        0                       # DTB read misses
system.cpu05.itb.write_accesses                     0                       # DTB write accesses
system.cpu05.itb.write_hits                         0                       # DTB write hits
system.cpu05.itb.write_misses                       0                       # DTB write misses
system.cpu05.not_idle_fraction               0.019134                       # Percentage of non-idle cycles
system.cpu05.numCycles                         966068                       # number of cpu cycles simulated
system.cpu05.numPwrStateTransitions                 2                       # Number of power state transitions
system.cpu05.numWorkItemsCompleted                  0                       # number of work items this cpu completed
system.cpu05.numWorkItemsStarted                    0                       # number of work items this cpu started
system.cpu05.num_busy_cycles             18485.001962                       # Number of busy cycles
system.cpu05.num_conditional_control_insts          444                       # number of instructions that are conditional controls
system.cpu05.num_fp_alu_accesses                   12                       # Number of float alu accesses
system.cpu05.num_fp_insts                          12                       # number of float instructions
system.cpu05.num_fp_register_reads                 12                       # number of times the floating registers were read
system.cpu05.num_fp_register_writes                 0                       # number of times the floating registers were written
system.cpu05.num_func_calls                       429                       # number of times a function call or return occured
system.cpu05.num_idle_cycles             947582.998038                       # Number of idle cycles
system.cpu05.num_int_alu_accesses                4546                       # Number of integer alu accesses
system.cpu05.num_int_insts                       4546                       # number of integer instructions
system.cpu05.num_int_register_reads              5240                       # number of times the integer registers were read
system.cpu05.num_int_register_writes             3373                       # number of times the integer registers were written
system.cpu05.num_load_insts                      1133                       # Number of load instructions
system.cpu05.num_mem_refs                        1682                       # number of memory refs
system.cpu05.num_store_insts                      549                       # Number of store instructions
system.cpu05.num_vec_alu_accesses                   0                       # Number of vector alu accesses
system.cpu05.num_vec_insts                          0                       # number of vector instructions
system.cpu05.num_vec_register_reads                 0                       # number of times the vector registers were read
system.cpu05.num_vec_register_writes                0                       # number of times the vector registers were written
system.cpu05.op_class::No_OpClass                  10      0.22%      0.22% # Class of executed instruction
system.cpu05.op_class::IntAlu                    2946     63.48%     63.69% # Class of executed instruction
system.cpu05.op_class::IntMult                      1      0.02%     63.71% # Class of executed instruction
system.cpu05.op_class::IntDiv                       2      0.04%     63.76% # Class of executed instruction
system.cpu05.op_class::FloatAdd                     0      0.00%     63.76% # Class of executed instruction
system.cpu05.op_class::FloatCmp                     0      0.00%     63.76% # Class of executed instruction
system.cpu05.op_class::FloatCvt                     0      0.00%     63.76% # Class of executed instruction
system.cpu05.op_class::FloatMult                    0      0.00%     63.76% # Class of executed instruction
system.cpu05.op_class::FloatMultAcc                 0      0.00%     63.76% # Class of executed instruction
system.cpu05.op_class::FloatDiv                     0      0.00%     63.76% # Class of executed instruction
system.cpu05.op_class::FloatMisc                    0      0.00%     63.76% # Class of executed instruction
system.cpu05.op_class::FloatSqrt                    0      0.00%     63.76% # Class of executed instruction
system.cpu05.op_class::SimdAdd                      0      0.00%     63.76% # Class of executed instruction
system.cpu05.op_class::SimdAddAcc                   0      0.00%     63.76% # Class of executed instruction
system.cpu05.op_class::SimdAlu                      0      0.00%     63.76% # Class of executed instruction
system.cpu05.op_class::SimdCmp                      0      0.00%     63.76% # Class of executed instruction
system.cpu05.op_class::SimdCvt                      0      0.00%     63.76% # Class of executed instruction
system.cpu05.op_class::SimdMisc                     0      0.00%     63.76% # Class of executed instruction
system.cpu05.op_class::SimdMult                     0      0.00%     63.76% # Class of executed instruction
system.cpu05.op_class::SimdMultAcc                  0      0.00%     63.76% # Class of executed instruction
system.cpu05.op_class::SimdShift                    0      0.00%     63.76% # Class of executed instruction
system.cpu05.op_class::SimdShiftAcc                 0      0.00%     63.76% # Class of executed instruction
system.cpu05.op_class::SimdSqrt                     0      0.00%     63.76% # Class of executed instruction
system.cpu05.op_class::SimdFloatAdd                 0      0.00%     63.76% # Class of executed instruction
system.cpu05.op_class::SimdFloatAlu                 0      0.00%     63.76% # Class of executed instruction
system.cpu05.op_class::SimdFloatCmp                 0      0.00%     63.76% # Class of executed instruction
system.cpu05.op_class::SimdFloatCvt                 0      0.00%     63.76% # Class of executed instruction
system.cpu05.op_class::SimdFloatDiv                 0      0.00%     63.76% # Class of executed instruction
system.cpu05.op_class::SimdFloatMisc                0      0.00%     63.76% # Class of executed instruction
system.cpu05.op_class::SimdFloatMult                0      0.00%     63.76% # Class of executed instruction
system.cpu05.op_class::SimdFloatMultAcc             0      0.00%     63.76% # Class of executed instruction
system.cpu05.op_class::SimdFloatSqrt                0      0.00%     63.76% # Class of executed instruction
system.cpu05.op_class::SimdAes                      0      0.00%     63.76% # Class of executed instruction
system.cpu05.op_class::SimdAesMix                   0      0.00%     63.76% # Class of executed instruction
system.cpu05.op_class::SimdSha1Hash                 0      0.00%     63.76% # Class of executed instruction
system.cpu05.op_class::SimdSha1Hash2                0      0.00%     63.76% # Class of executed instruction
system.cpu05.op_class::SimdSha256Hash               0      0.00%     63.76% # Class of executed instruction
system.cpu05.op_class::SimdSha256Hash2              0      0.00%     63.76% # Class of executed instruction
system.cpu05.op_class::SimdShaSigma2                0      0.00%     63.76% # Class of executed instruction
system.cpu05.op_class::SimdShaSigma3                0      0.00%     63.76% # Class of executed instruction
system.cpu05.op_class::MemRead                   1137     24.50%     88.26% # Class of executed instruction
system.cpu05.op_class::MemWrite                   533     11.48%     99.74% # Class of executed instruction
system.cpu05.op_class::FloatMemRead                 0      0.00%     99.74% # Class of executed instruction
system.cpu05.op_class::FloatMemWrite               12      0.26%    100.00% # Class of executed instruction
system.cpu05.op_class::IprAccess                    0      0.00%    100.00% # Class of executed instruction
system.cpu05.op_class::InstPrefetch                 0      0.00%    100.00% # Class of executed instruction
system.cpu05.op_class::total                     4641                       # Class of executed instruction
system.cpu05.pwrStateClkGateDist::samples            1                       # Distribution of time spent in the clock gated state
system.cpu05.pwrStateClkGateDist::mean       64789500                       # Distribution of time spent in the clock gated state
system.cpu05.pwrStateClkGateDist::1000-5e+10            1    100.00%    100.00% # Distribution of time spent in the clock gated state
system.cpu05.pwrStateClkGateDist::min_value     64789500                       # Distribution of time spent in the clock gated state
system.cpu05.pwrStateClkGateDist::max_value     64789500                       # Distribution of time spent in the clock gated state
system.cpu05.pwrStateClkGateDist::total             1                       # Distribution of time spent in the clock gated state
system.cpu05.pwrStateResidencyTicks::ON     418244500                       # Cumulative time (in ticks) in various power states
system.cpu05.pwrStateResidencyTicks::CLK_GATED     64789500                       # Cumulative time (in ticks) in various power states
system.cpu06.Branches                             865                       # Number of branches fetched
system.cpu06.committedInsts                      4567                       # Number of instructions committed
system.cpu06.committedOps                        4573                       # Number of ops (including micro ops) committed
system.cpu06.dtb.accesses                           0                       # DTB accesses
system.cpu06.dtb.hits                               0                       # DTB hits
system.cpu06.dtb.misses                             0                       # DTB misses
system.cpu06.dtb.pwrStateResidencyTicks::UNDEFINED    483034000                       # Cumulative time (in ticks) in various power states
system.cpu06.dtb.read_accesses                      0                       # DTB read accesses
system.cpu06.dtb.read_hits                          0                       # DTB read hits
system.cpu06.dtb.read_misses                        0                       # DTB read misses
system.cpu06.dtb.write_accesses                     0                       # DTB write accesses
system.cpu06.dtb.write_hits                         0                       # DTB write hits
system.cpu06.dtb.write_misses                       0                       # DTB write misses
system.cpu06.idle_fraction                   0.981062                       # Percentage of idle cycles
system.cpu06.itb.accesses                           0                       # DTB accesses
system.cpu06.itb.hits                               0                       # DTB hits
system.cpu06.itb.misses                             0                       # DTB misses
system.cpu06.itb.pwrStateResidencyTicks::UNDEFINED    483034000                       # Cumulative time (in ticks) in various power states
system.cpu06.itb.read_accesses                      0                       # DTB read accesses
system.cpu06.itb.read_hits                          0                       # DTB read hits
system.cpu06.itb.read_misses                        0                       # DTB read misses
system.cpu06.itb.write_accesses                     0                       # DTB write accesses
system.cpu06.itb.write_hits                         0                       # DTB write hits
system.cpu06.itb.write_misses                       0                       # DTB write misses
system.cpu06.not_idle_fraction               0.018938                       # Percentage of non-idle cycles
system.cpu06.numCycles                         966067                       # number of cpu cycles simulated
system.cpu06.numPwrStateTransitions                 2                       # Number of power state transitions
system.cpu06.numWorkItemsCompleted                  0                       # number of work items this cpu completed
system.cpu06.numWorkItemsStarted                    0                       # number of work items this cpu started
system.cpu06.num_busy_cycles             18294.983025                       # Number of busy cycles
system.cpu06.num_conditional_control_insts          438                       # number of instructions that are conditional controls
system.cpu06.num_fp_alu_accesses                   12                       # Number of float alu accesses
system.cpu06.num_fp_insts                          12                       # number of float instructions
system.cpu06.num_fp_register_reads                 12                       # number of times the floating registers were read
system.cpu06.num_fp_register_writes                 0                       # number of times the floating registers were written
system.cpu06.num_func_calls                       427                       # number of times a function call or return occured
system.cpu06.num_idle_cycles             947772.016975                       # Number of idle cycles
system.cpu06.num_int_alu_accesses                4477                       # Number of integer alu accesses
system.cpu06.num_int_insts                       4477                       # number of integer instructions
system.cpu06.num_int_register_reads              5164                       # number of times the integer registers were read
system.cpu06.num_int_register_writes             3321                       # number of times the integer registers were written
system.cpu06.num_load_insts                      1116                       # Number of load instructions
system.cpu06.num_mem_refs                        1656                       # number of memory refs
system.cpu06.num_store_insts                      540                       # Number of store instructions
system.cpu06.num_vec_alu_accesses                   0                       # Number of vector alu accesses
system.cpu06.num_vec_insts                          0                       # number of vector instructions
system.cpu06.num_vec_register_reads                 0                       # number of times the vector registers were read
system.cpu06.num_vec_register_writes                0                       # number of times the vector registers were written
system.cpu06.op_class::No_OpClass                  10      0.22%      0.22% # Class of executed instruction
system.cpu06.op_class::IntAlu                    2906     63.52%     63.74% # Class of executed instruction
system.cpu06.op_class::IntMult                      1      0.02%     63.76% # Class of executed instruction
system.cpu06.op_class::IntDiv                       2      0.04%     63.80% # Class of executed instruction
system.cpu06.op_class::FloatAdd                     0      0.00%     63.80% # Class of executed instruction
system.cpu06.op_class::FloatCmp                     0      0.00%     63.80% # Class of executed instruction
system.cpu06.op_class::FloatCvt                     0      0.00%     63.80% # Class of executed instruction
system.cpu06.op_class::FloatMult                    0      0.00%     63.80% # Class of executed instruction
system.cpu06.op_class::FloatMultAcc                 0      0.00%     63.80% # Class of executed instruction
system.cpu06.op_class::FloatDiv                     0      0.00%     63.80% # Class of executed instruction
system.cpu06.op_class::FloatMisc                    0      0.00%     63.80% # Class of executed instruction
system.cpu06.op_class::FloatSqrt                    0      0.00%     63.80% # Class of executed instruction
system.cpu06.op_class::SimdAdd                      0      0.00%     63.80% # Class of executed instruction
system.cpu06.op_class::SimdAddAcc                   0      0.00%     63.80% # Class of executed instruction
system.cpu06.op_class::SimdAlu                      0      0.00%     63.80% # Class of executed instruction
system.cpu06.op_class::SimdCmp                      0      0.00%     63.80% # Class of executed instruction
system.cpu06.op_class::SimdCvt                      0      0.00%     63.80% # Class of executed instruction
system.cpu06.op_class::SimdMisc                     0      0.00%     63.80% # Class of executed instruction
system.cpu06.op_class::SimdMult                     0      0.00%     63.80% # Class of executed instruction
system.cpu06.op_class::SimdMultAcc                  0      0.00%     63.80% # Class of executed instruction
system.cpu06.op_class::SimdShift                    0      0.00%     63.80% # Class of executed instruction
system.cpu06.op_class::SimdShiftAcc                 0      0.00%     63.80% # Class of executed instruction
system.cpu06.op_class::SimdSqrt                     0      0.00%     63.80% # Class of executed instruction
system.cpu06.op_class::SimdFloatAdd                 0      0.00%     63.80% # Class of executed instruction
system.cpu06.op_class::SimdFloatAlu                 0      0.00%     63.80% # Class of executed instruction
system.cpu06.op_class::SimdFloatCmp                 0      0.00%     63.80% # Class of executed instruction
system.cpu06.op_class::SimdFloatCvt                 0      0.00%     63.80% # Class of executed instruction
system.cpu06.op_class::SimdFloatDiv                 0      0.00%     63.80% # Class of executed instruction
system.cpu06.op_class::SimdFloatMisc                0      0.00%     63.80% # Class of executed instruction
system.cpu06.op_class::SimdFloatMult                0      0.00%     63.80% # Class of executed instruction
system.cpu06.op_class::SimdFloatMultAcc             0      0.00%     63.80% # Class of executed instruction
system.cpu06.op_class::SimdFloatSqrt                0      0.00%     63.80% # Class of executed instruction
system.cpu06.op_class::SimdAes                      0      0.00%     63.80% # Class of executed instruction
system.cpu06.op_class::SimdAesMix                   0      0.00%     63.80% # Class of executed instruction
system.cpu06.op_class::SimdSha1Hash                 0      0.00%     63.80% # Class of executed instruction
system.cpu06.op_class::SimdSha1Hash2                0      0.00%     63.80% # Class of executed instruction
system.cpu06.op_class::SimdSha256Hash               0      0.00%     63.80% # Class of executed instruction
system.cpu06.op_class::SimdSha256Hash2              0      0.00%     63.80% # Class of executed instruction
system.cpu06.op_class::SimdShaSigma2                0      0.00%     63.80% # Class of executed instruction
system.cpu06.op_class::SimdShaSigma3                0      0.00%     63.80% # Class of executed instruction
system.cpu06.op_class::MemRead                   1120     24.48%     88.28% # Class of executed instruction
system.cpu06.op_class::MemWrite                   524     11.45%     99.74% # Class of executed instruction
system.cpu06.op_class::FloatMemRead                 0      0.00%     99.74% # Class of executed instruction
system.cpu06.op_class::FloatMemWrite               12      0.26%    100.00% # Class of executed instruction
system.cpu06.op_class::IprAccess                    0      0.00%    100.00% # Class of executed instruction
system.cpu06.op_class::InstPrefetch                 0      0.00%    100.00% # Class of executed instruction
system.cpu06.op_class::total                     4575                       # Class of executed instruction
system.cpu06.pwrStateClkGateDist::samples            1                       # Distribution of time spent in the clock gated state
system.cpu06.pwrStateClkGateDist::mean       58502500                       # Distribution of time spent in the clock gated state
system.cpu06.pwrStateClkGateDist::1000-5e+10            1    100.00%    100.00% # Distribution of time spent in the clock gated state
system.cpu06.pwrStateClkGateDist::min_value     58502500                       # Distribution of time spent in the clock gated state
[...]
system.ruby.network.int_links39.credit_link.pwrStateResidencyTicks::UNDEFINED    483034000                       # Cumulative time (in ticks) in various power states
system.ruby.network.int_links39.network_link.pwrStateResidencyTicks::UNDEFINED    483034000                       # Cumulative time (in ticks) in various power states
system.ruby.network.int_links40.credit_link.pwrStateResidencyTicks::UNDEFINED    483034000                       # Cumulative time (in ticks) in various power states
system.ruby.network.int_links40.network_link.pwrStateResidencyTicks::UNDEFINED    483034000                       # Cumulative time (in ticks) in various power states
system.ruby.network.int_links41.credit_link.pwrStateResidencyTicks::UNDEFINED    483034000                       # Cumulative time (in ticks) in various power states
system.ruby.network.int_links41.network_link.pwrStateResidencyTicks::UNDEFINED    483034000                       # Cumulative time (in ticks) in various power states
system.ruby.network.int_links42.credit_link.pwrStateResidencyTicks::UNDEFINED    483034000                       # Cumulative time (in ticks) in various power states
system.ruby.network.int_links42.network_link.pwrStateResidencyTicks::UNDEFINED    483034000                       # Cumulative time (in ticks) in various power states
system.ruby.network.int_links43.credit_link.pwrStateResidencyTicks::UNDEFINED    483034000                       # Cumulative time (in ticks) in various power states
system.ruby.network.int_links43.network_link.pwrStateResidencyTicks::UNDEFINED    483034000                       # Cumulative time (in ticks) in various power states
system.ruby.network.int_links44.credit_link.pwrStateResidencyTicks::UNDEFINED    483034000                       # Cumulative time (in ticks) in various power states
system.ruby.network.int_links44.network_link.pwrStateResidencyTicks::UNDEFINED    483034000                       # Cumulative time (in ticks) in various power states
system.ruby.network.int_links45.credit_link.pwrStateResidencyTicks::UNDEFINED    483034000                       # Cumulative time (in ticks) in various power states
system.ruby.network.int_links45.network_link.pwrStateResidencyTicks::UNDEFINED    483034000                       # Cumulative time (in ticks) in various power states
system.ruby.network.int_links46.credit_link.pwrStateResidencyTicks::UNDEFINED    483034000                       # Cumulative time (in ticks) in various power states
system.ruby.network.int_links46.network_link.pwrStateResidencyTicks::UNDEFINED    483034000                       # Cumulative time (in ticks) in various power states
system.ruby.network.int_links47.credit_link.pwrStateResidencyTicks::UNDEFINED    483034000                       # Cumulative time (in ticks) in various power states
system.ruby.network.int_links47.network_link.pwrStateResidencyTicks::UNDEFINED    483034000                       # Cumulative time (in ticks) in various power states
system.ruby.network.netifs00.pwrStateResidencyTicks::UNDEFINED    483034000                       # Cumulative time (in ticks) in various power states
system.ruby.network.netifs01.pwrStateResidencyTicks::UNDEFINED    483034000                       # Cumulative time (in ticks) in various power states
system.ruby.network.netifs02.pwrStateResidencyTicks::UNDEFINED    483034000                       # Cumulative time (in ticks) in various power states
system.ruby.network.netifs03.pwrStateResidencyTicks::UNDEFINED    483034000                       # Cumulative time (in ticks) in various power states
system.ruby.network.netifs04.pwrStateResidencyTicks::UNDEFINED    483034000                       # Cumulative time (in ticks) in various power states
system.ruby.network.netifs05.pwrStateResidencyTicks::UNDEFINED    483034000                       # Cumulative time (in ticks) in various power states
system.ruby.network.netifs06.pwrStateResidencyTicks::UNDEFINED    483034000                       # Cumulative time (in ticks) in various power states
system.ruby.network.netifs07.pwrStateResidencyTicks::UNDEFINED    483034000                       # Cumulative time (in ticks) in various power states
system.ruby.network.netifs08.pwrStateResidencyTicks::UNDEFINED    483034000                       # Cumulative time (in ticks) in various power states
system.ruby.network.netifs09.pwrStateResidencyTicks::UNDEFINED    483034000                       # Cumulative time (in ticks) in various power states
system.ruby.network.netifs10.pwrStateResidencyTicks::UNDEFINED    483034000                       # Cumulative time (in ticks) in various power states
system.ruby.network.netifs11.pwrStateResidencyTicks::UNDEFINED    483034000                       # Cumulative time (in ticks) in various power states
system.ruby.network.netifs12.pwrStateResidencyTicks::UNDEFINED    483034000                       # Cumulative time (in ticks) in various power states
system.ruby.network.netifs13.pwrStateResidencyTicks::UNDEFINED    483034000                       # Cumulative time (in ticks) in various power states
system.ruby.network.netifs14.pwrStateResidencyTicks::UNDEFINED    483034000                       # Cumulative time (in ticks) in various power states
system.ruby.network.netifs15.pwrStateResidencyTicks::UNDEFINED    483034000                       # Cumulative time (in ticks) in various power states
system.ruby.network.netifs16.pwrStateResidencyTicks::UNDEFINED    483034000                       # Cumulative time (in ticks) in various power states
system.ruby.network.netifs17.pwrStateResidencyTicks::UNDEFINED    483034000                       # Cumulative time (in ticks) in various power states
system.ruby.network.netifs18.pwrStateResidencyTicks::UNDEFINED    483034000                       # Cumulative time (in ticks) in various power states
system.ruby.network.netifs19.pwrStateResidencyTicks::UNDEFINED    483034000                       # Cumulative time (in ticks) in various power states
system.ruby.network.netifs20.pwrStateResidencyTicks::UNDEFINED    483034000                       # Cumulative time (in ticks) in various power states
system.ruby.network.netifs21.pwrStateResidencyTicks::UNDEFINED    483034000                       # Cumulative time (in ticks) in various power states
system.ruby.network.netifs22.pwrStateResidencyTicks::UNDEFINED    483034000                       # Cumulative time (in ticks) in various power states
system.ruby.network.netifs23.pwrStateResidencyTicks::UNDEFINED    483034000                       # Cumulative time (in ticks) in various power states
system.ruby.network.netifs24.pwrStateResidencyTicks::UNDEFINED    483034000                       # Cumulative time (in ticks) in various power states
system.ruby.network.netifs25.pwrStateResidencyTicks::UNDEFINED    483034000                       # Cumulative time (in ticks) in various power states
system.ruby.network.netifs26.pwrStateResidencyTicks::UNDEFINED    483034000                       # Cumulative time (in ticks) in various power states
system.ruby.network.netifs27.pwrStateResidencyTicks::UNDEFINED    483034000                       # Cumulative time (in ticks) in various power states
system.ruby.network.netifs28.pwrStateResidencyTicks::UNDEFINED    483034000                       # Cumulative time (in ticks) in various power states
system.ruby.network.netifs29.pwrStateResidencyTicks::UNDEFINED    483034000                       # Cumulative time (in ticks) in various power states
system.ruby.network.netifs30.pwrStateResidencyTicks::UNDEFINED    483034000                       # Cumulative time (in ticks) in various power states
system.ruby.network.netifs31.pwrStateResidencyTicks::UNDEFINED    483034000                       # Cumulative time (in ticks) in various power states
system.ruby.network.netifs32.pwrStateResidencyTicks::UNDEFINED    483034000                       # Cumulative time (in ticks) in various power states
system.ruby.network.netifs33.pwrStateResidencyTicks::UNDEFINED    483034000                       # Cumulative time (in ticks) in various power states
system.ruby.network.netifs34.pwrStateResidencyTicks::UNDEFINED    483034000                       # Cumulative time (in ticks) in various power states
system.ruby.network.netifs35.pwrStateResidencyTicks::UNDEFINED    483034000                       # Cumulative time (in ticks) in various power states
system.ruby.network.packet_network_latency |      222860                       |      241286                       |       55155                      
system.ruby.network.packet_queueing_latency |       44800                       |       29197                       |        6474                      
system.ruby.network.packets_injected     |       19465     42.69%     42.69% |       19655     43.11%     85.80% |        6474     14.20%    100.00%
system.ruby.network.packets_injected::total        45594                      
system.ruby.network.packets_received     |       19465     42.69%     42.69% |       19655     43.11%     85.80% |        6474     14.20%    100.00%
system.ruby.network.packets_received::total        45594                      
system.ruby.network.pwrStateResidencyTicks::UNDEFINED    483034000                       # Cumulative time (in ticks) in various power states
system.ruby.network.routers00.buffer_reads        92935                      
system.ruby.network.routers00.buffer_writes        92935                      
system.ruby.network.routers00.crossbar_activity        92935                      
system.ruby.network.routers00.pwrStateResidencyTicks::UNDEFINED    483034000                       # Cumulative time (in ticks) in various power states
system.ruby.network.routers00.sw_input_arbiter_activity        93005                      
system.ruby.network.routers00.sw_output_arbiter_activity        92935                      
system.ruby.network.routers01.buffer_reads        39315                      
system.ruby.network.routers01.buffer_writes        39315                      
system.ruby.network.routers01.crossbar_activity        39315                      
system.ruby.network.routers01.pwrStateResidencyTicks::UNDEFINED    483034000                       # Cumulative time (in ticks) in various power states
system.ruby.network.routers01.sw_input_arbiter_activity        39344                      
system.ruby.network.routers01.sw_output_arbiter_activity        39315                      
system.ruby.network.routers02.buffer_reads        26637                      
system.ruby.network.routers02.buffer_writes        26637                      
system.ruby.network.routers02.crossbar_activity        26637                      
system.ruby.network.routers02.pwrStateResidencyTicks::UNDEFINED    483034000                       # Cumulative time (in ticks) in various power states
system.ruby.network.routers02.sw_input_arbiter_activity        26666                      
system.ruby.network.routers02.sw_output_arbiter_activity        26637                      
system.ruby.network.routers03.buffer_reads        15963                      
system.ruby.network.routers03.buffer_writes        15963                      
system.ruby.network.routers03.crossbar_activity        15963                      
system.ruby.network.routers03.pwrStateResidencyTicks::UNDEFINED    483034000                       # Cumulative time (in ticks) in various power states
system.ruby.network.routers03.sw_input_arbiter_activity        15966                      
system.ruby.network.routers03.sw_output_arbiter_activity        15963                      
system.ruby.network.routers04.buffer_reads        54073                      
system.ruby.network.routers04.buffer_writes        54073                      
system.ruby.network.routers04.crossbar_activity        54073                      
system.ruby.network.routers04.pwrStateResidencyTicks::UNDEFINED    483034000                       # Cumulative time (in ticks) in various power states
system.ruby.network.routers04.sw_input_arbiter_activity        54103                      
system.ruby.network.routers04.sw_output_arbiter_activity        54073                      
system.ruby.network.routers05.buffer_reads        20047                      
system.ruby.network.routers05.buffer_writes        20047                      
system.ruby.network.routers05.crossbar_activity        20047                      
system.ruby.network.routers05.pwrStateResidencyTicks::UNDEFINED    483034000                       # Cumulative time (in ticks) in various power states
system.ruby.network.routers05.sw_input_arbiter_activity        20053                      
system.ruby.network.routers05.sw_output_arbiter_activity        20047                      
system.ruby.network.routers06.buffer_reads        14892                      
system.ruby.network.routers06.buffer_writes        14892                      
system.ruby.network.routers06.crossbar_activity        14892                      
system.ruby.network.routers06.pwrStateResidencyTicks::UNDEFINED    483034000                       # Cumulative time (in ticks) in various power states
system.ruby.network.routers06.sw_input_arbiter_activity        14899                      
system.ruby.network.routers06.sw_output_arbiter_activity        14892                      
system.ruby.network.routers07.buffer_reads        12134                      
system.ruby.network.routers07.buffer_writes        12134                      
system.ruby.network.routers07.crossbar_activity        12134                      
system.ruby.network.routers07.pwrStateResidencyTicks::UNDEFINED    483034000                       # Cumulative time (in ticks) in various power states
system.ruby.network.routers07.sw_input_arbiter_activity        12147                      
system.ruby.network.routers07.sw_output_arbiter_activity        12134                      
system.ruby.network.routers08.buffer_reads        36674                      
system.ruby.network.routers08.buffer_writes        36674                      
system.ruby.network.routers08.crossbar_activity        36674                      
system.ruby.network.routers08.pwrStateResidencyTicks::UNDEFINED    483034000                       # Cumulative time (in ticks) in various power states
system.ruby.network.routers08.sw_input_arbiter_activity        36704                      
system.ruby.network.routers08.sw_output_arbiter_activity        36674                      
system.ruby.network.routers09.buffer_reads        18063                      
system.ruby.network.routers09.buffer_writes        18063                      
system.ruby.network.routers09.crossbar_activity        18063                      
system.ruby.network.routers09.pwrStateResidencyTicks::UNDEFINED    483034000                       # Cumulative time (in ticks) in various power states
system.ruby.network.routers09.sw_input_arbiter_activity        18076                      
system.ruby.network.routers09.sw_output_arbiter_activity        18063                      
system.ruby.network.routers10.buffer_reads        17243                      
system.ruby.network.routers10.buffer_writes        17243                      
system.ruby.network.routers10.crossbar_activity        17243                      
system.ruby.network.routers10.pwrStateResidencyTicks::UNDEFINED    483034000                       # Cumulative time (in ticks) in various power states
system.ruby.network.routers10.sw_input_arbiter_activity        17256                      
system.ruby.network.routers10.sw_output_arbiter_activity        17243                      
system.ruby.network.routers11.buffer_reads        13145                      
system.ruby.network.routers11.buffer_writes        13145                      
system.ruby.network.routers11.crossbar_activity        13145                      
system.ruby.network.routers11.pwrStateResidencyTicks::UNDEFINED    483034000                       # Cumulative time (in ticks) in various power states
system.ruby.network.routers11.sw_input_arbiter_activity        13150                      
system.ruby.network.routers11.sw_output_arbiter_activity        13145                      
system.ruby.network.routers12.buffer_reads        24502                      
system.ruby.network.routers12.buffer_writes        24502                      
system.ruby.network.routers12.crossbar_activity        24502                      
system.ruby.network.routers12.pwrStateResidencyTicks::UNDEFINED    483034000                       # Cumulative time (in ticks) in various power states
system.ruby.network.routers12.sw_input_arbiter_activity        24506                      
system.ruby.network.routers12.sw_output_arbiter_activity        24502                      
system.ruby.network.routers13.buffer_reads        19395                      
system.ruby.network.routers13.buffer_writes        19395                      
system.ruby.network.routers13.crossbar_activity        19395                      
system.ruby.network.routers13.pwrStateResidencyTicks::UNDEFINED    483034000                       # Cumulative time (in ticks) in various power states
system.ruby.network.routers13.sw_input_arbiter_activity        19423                      
system.ruby.network.routers13.sw_output_arbiter_activity        19395                      
system.ruby.network.routers14.buffer_reads        15482                      
system.ruby.network.routers14.buffer_writes        15482                      
system.ruby.network.routers14.crossbar_activity        15482                      
system.ruby.network.routers14.pwrStateResidencyTicks::UNDEFINED    483034000                       # Cumulative time (in ticks) in various power states
system.ruby.network.routers14.sw_input_arbiter_activity        15500                      
system.ruby.network.routers14.sw_output_arbiter_activity        15482                      
system.ruby.network.routers15.buffer_reads        11601                      
system.ruby.network.routers15.buffer_writes        11601                      
system.ruby.network.routers15.crossbar_activity        11601                      
system.ruby.network.routers15.pwrStateResidencyTicks::UNDEFINED    483034000                       # Cumulative time (in ticks) in various power states
system.ruby.network.routers15.sw_input_arbiter_activity        11611                      
system.ruby.network.routers15.sw_output_arbiter_activity        11601                      
system.ruby.outstanding_req_hist_seqr::bucket_size            1                      
system.ruby.outstanding_req_hist_seqr::max_bucket            9                      
system.ruby.outstanding_req_hist_seqr::samples       255280                      
system.ruby.outstanding_req_hist_seqr::mean            1                      
system.ruby.outstanding_req_hist_seqr::gmean            1                      
system.ruby.outstanding_req_hist_seqr    |           0      0.00%      0.00% |      255280    100.00%    100.00% |           0      0.00%    100.00% |           0      0.00%    100.00% |           0      0.00%    100.00% |           0      0.00%    100.00% |           0      0.00%    100.00% |           0      0.00%    100.00% |           0      0.00%    100.00% |           0      0.00%    100.00%
system.ruby.outstanding_req_hist_seqr::total       255280                      
system.ruby.pwrStateResidencyTicks::UNDEFINED    483034000                       # Cumulative time (in ticks) in various power states
system.sys_port_proxy.pwrStateResidencyTicks::UNDEFINED    483034000                       # Cumulative time (in ticks) in various power states
system.voltage_domain.voltage                       1                       # Voltage in Volts

---------- End Simulation Statistics   ----------
