
---------- Begin Simulation Statistics ----------
final_tick                                  508480000                       # Number of ticks from beginning of simulation (restored from checkpoints and never reset)
host_inst_rate                                  43388                       # Simulator instruction rate (inst/s)
host_mem_usage                                5159400                       # Number of bytes of host memory used
host_op_rate                                    43484                       # Simulator op (including micro ops) rate (op/s)
host_seconds                                     3.87                       # Real time elapsed on the host
host_tick_rate                              131254234                       # Simulator tick rate (ticks/s)
sim_freq                                 1000000000000                       # Frequency of simulated ticks
sim_insts                                      168075                       # Number of instructions simulated
sim_ops                                        168457                       # Number of ops (including micro ops) simulated
sim_seconds                                  0.000508                       # Number of seconds simulated
sim_ticks                                   508480000                       # Number of ticks simulated
system.clk_domain.clock                          1000                       # Clock period in ticks
system.cpu00.Branches                           22345                       # Number of branches fetched
system.cpu00.committedInsts                    100001                       # Number of instructions committed
system.cpu00.committedOps                      100294                       # Number of ops (including micro ops) committed
system.cpu00.dtb.accesses                           0                       # DTB accesses
system.cpu00.dtb.hits                               0                       # DTB hits
system.cpu00.dtb.misses                             0                       # DTB misses
system.cpu00.dtb.pwrStateResidencyTicks::UNDEFINED    508480000                       # Cumulative time (in ticks) in various power states
system.cpu00.dtb.read_accesses                      0                       # DTB read accesses
system.cpu00.dtb.read_hits                          0                       # DTB read hits
system.cpu00.dtb.read_misses                        0                       # DTB read misses
system.cpu00.dtb.write_accesses                     0                       # DTB write accesses
system.cpu00.dtb.write_hits                         0                       # DTB write hits
system.cpu00.dtb.write_misses                       0                       # DTB write misses
system.cpu00.idle_fraction                   0.005690                       # Percentage of idle cycles
system.cpu00.itb.accesses                           0                       # DTB accesses
system.cpu00.itb.hits                               0                       # DTB hits
system.cpu00.itb.misses                             0                       # DTB misses
system.cpu00.itb.pwrStateResidencyTicks::UNDEFINED    508480000                       # Cumulative time (in ticks) in various power states
system.cpu00.itb.read_accesses                      0                       # DTB read accesses
system.cpu00.itb.read_hits                          0                       # DTB read hits
system.cpu00.itb.read_misses                        0                       # DTB read misses
system.cpu00.itb.write_accesses                     0                       # DTB write accesses
system.cpu00.itb.write_hits                         0                       # DTB write hits
system.cpu00.itb.write_misses                       0                       # DTB write misses
system.cpu00.not_idle_fraction               0.994310                       # Percentage of non-idle cycles
system.cpu00.numCycles                        1016960                       # number of cpu cycles simulated
system.cpu00.numPwrStateTransitions                 2                       # Number of power state transitions
system.cpu00.numWorkItemsCompleted                  0                       # number of work items this cpu completed
system.cpu00.numWorkItemsStarted                    0                       # number of work items this cpu started
system.cpu00.num_busy_cycles             1011173.000011                       # Number of busy cycles
system.cpu00.num_conditional_control_insts        15927                       # number of instructions that are conditional controls
system.cpu00.num_fp_alu_accesses                   12                       # Number of float alu accesses
system.cpu00.num_fp_insts                          12                       # number of float instructions
system.cpu00.num_fp_register_reads                 12                       # number of times the floating registers were read
system.cpu00.num_fp_register_writes                 0                       # number of times the floating registers were written
system.cpu00.num_func_calls                      6418                       # number of times a function call or return occured
system.cpu00.num_idle_cycles              5786.999989                       # Number of idle cycles
system.cpu00.num_int_alu_accesses               98836                       # Number of integer alu accesses
system.cpu00.num_int_insts                      98836                       # number of integer instructions
system.cpu00.num_int_register_reads            120833                       # number of times the integer registers were read
system.cpu00.num_int_register_writes            64478                       # number of times the integer registers were written
system.cpu00.num_load_insts                     20286                       # Number of load instructions
system.cpu00.num_mem_refs                       36551                       # number of memory refs
system.cpu00.num_store_insts                    16265                       # Number of store instructions
system.cpu00.num_vec_alu_accesses                   0                       # Number of vector alu accesses
system.cpu00.num_vec_insts                          0                       # number of vector instructions
system.cpu00.num_vec_register_reads                 0                       # number of times the vector registers were read
system.cpu00.num_vec_register_writes                0                       # number of times the vector registers were written
system.cpu00.op_class::No_OpClass                 860      0.86%      0.86% # Class of executed instruction
system.cpu00.op_class::IntAlu                   62920     62.69%     63.55% # Class of executed instruction
system.cpu00.op_class::IntMult                     30      0.03%     63.58% # Class of executed instruction
system.cpu00.op_class::IntDiv                       6      0.01%     63.58% # Class of executed instruction
system.cpu00.op_class::FloatAdd                     0      0.00%     63.58% # Class of executed instruction
system.cpu00.op_class::FloatCmp                     0      0.00%     63.58% # Class of executed instruction
system.cpu00.op_class::FloatCvt                     0      0.00%     63.58% # Class of executed instruction
system.cpu00.op_class::FloatMult                    0      0.00%     63.58% # Class of executed instruction
system.cpu00.op_class::FloatMultAcc                 0      0.00%     63.58% # Class of executed instruction
system.cpu00.op_class::FloatDiv                     0      0.00%     63.58% # Class of executed instruction
system.cpu00.op_class::FloatMisc                    0      0.00%     63.58% # Class of executed instruction
system.cpu00.op_class::FloatSqrt                    0      0.00%     63.58% # Class of executed instruction
system.cpu00.op_class::SimdAdd                      0      0.00%     63.58% # Class of executed instruction
system.cpu00.op_class::SimdAddAcc                   0      0.00%     63.58% # Class of executed instruction
system.cpu00.op_class::SimdAlu                      0      0.00%     63.58% # Class of executed instruction
system.cpu00.op_class::SimdCmp                      0      0.00%     63.58% # Class of executed instruction
system.cpu00.op_class::SimdCvt                      0      0.00%     63.58% # Class of executed instruction
system.cpu00.op_class::SimdMisc                     0      0.00%     63.58% # Class of executed instruction
system.cpu00.op_class::SimdMult                     0      0.00%     63.58% # Class of executed instruction
system.cpu00.op_class::SimdMultAcc                  0      0.00%     63.58% # Class of executed instruction
system.cpu00.op_class::SimdShift                    0      0.00%     63.58% # Class of executed instruction
system.cpu00.op_class::SimdShiftAcc                 0      0.00%     63.58% # Class of executed instruction
system.cpu00.op_class::SimdSqrt                     0      0.00%     63.58% # Class of executed instruction
system.cpu00.op_class::SimdFloatAdd                 0      0.00%     63.58% # Class of executed instruction
system.cpu00.op_class::SimdFloatAlu                 0      0.00%     63.58% # Class of executed instruction
system.cpu00.op_class::SimdFloatCmp                 0      0.00%     63.58% # Class of executed instruction
system.cpu00.op_class::SimdFloatCvt                 0      0.00%     63.58% # Class of executed instruction
system.cpu00.op_class::SimdFloatDiv                 0      0.00%     63.58% # Class of executed instruction
system.cpu00.op_class::SimdFloatMisc                0      0.00%     63.58% # Class of executed instruction
system.cpu00.op_class::SimdFloatMult                0      0.00%     63.58% # Class of executed instruction
system.cpu00.op_class::SimdFloatMultAcc             0      0.00%     63.58% # Class of executed instruction
system.cpu00.op_class::SimdFloatSqrt                0      0.00%     63.58% # Class of executed instruction
system.cpu00.op_class::SimdAes                      0      0.00%     63.58% # Class of executed instruction
system.cpu00.op_class::SimdAesMix                   0      0.00%     63.58% # Class of executed instruction
system.cpu00.op_class::SimdSha1Hash                 0      0.00%     63.58% # Class of executed instruction
system.cpu00.op_class::SimdSha1Hash2                0      0.00%     63.58% # Class of executed instruction
system.cpu00.op_class::SimdSha256Hash               0      0.00%     63.58% # Class of executed instruction
system.cpu00.op_class::SimdSha256Hash2              0      0.00%     63.58% # Class of executed instruction
system.cpu00.op_class::SimdShaSigma2                0      0.00%     63.58% # Class of executed instruction
system.cpu00.op_class::SimdShaSigma3                0      0.00%     63.58% # Class of executed instruction
system.cpu00.op_class::MemRead                  20571     20.50%     84.08% # Class of executed instruction
system.cpu00.op_class::MemWrite                 15968     15.91%     99.99% # Class of executed instruction
system.cpu00.op_class::FloatMemRead                 0      0.00%     99.99% # Class of executed instruction
system.cpu00.op_class::FloatMemWrite               12      0.01%    100.00% # Class of executed instruction
system.cpu00.op_class::IprAccess                    0      0.00%    100.00% # Class of executed instruction
system.cpu00.op_class::InstPrefetch                 0      0.00%    100.00% # Class of executed instruction
system.cpu00.op_class::total                   100367                       # Class of executed instruction
system.cpu00.pwrStateClkGateDist::samples            1                       # Distribution of time spent in the clock gated state
system.cpu00.pwrStateClkGateDist::mean        2893500                       # Distribution of time spent in the clock gated state
system.cpu00.pwrStateClkGateDist::1000-5e+10            1    100.00%    100.00% # Distribution of time spent in the clock gated state
system.cpu00.pwrStateClkGateDist::min_value      2893500                       # Distribution of time spent in the clock gated state
system.cpu00.pwrStateClkGateDist::max_value      2893500                       # Distribution of time spent in the clock gated state
system.cpu00.pwrStateClkGateDist::total             1                       # Distribution of time spent in the clock gated state
system.cpu00.pwrStateResidencyTicks::ON     505586500                       # Cumulative time (in ticks) in various power states
system.cpu00.pwrStateResidencyTicks::CLK_GATED      2893500                       # Cumulative time (in ticks) in various power states
system.cpu00.workload.numSyscalls                  72                       # Number of system calls
system.cpu01.Branches                             903                       # Number of branches fetched
system.cpu01.committedInsts                      4824                       # Number of instructions committed
system.cpu01.committedOps                        4830                       # Number of ops (including micro ops) committed
system.cpu01.dtb.accesses                           0                       # DTB accesses
system.cpu01.dtb.hits                               0                       # DTB hits
system.cpu01.dtb.misses                             0                       # DTB misses
system.cpu01.dtb.pwrStateResidencyTicks::UNDEFINED    508480000                       # Cumulative time (in ticks) in various power states
system.cpu01.dtb.read_accesses                      0                       # DTB read accesses
system.cpu01.dtb.read_hits                          0                       # DTB read hits
system.cpu01.dtb.read_misses                        0                       # DTB read misses
system.cpu01.dtb.write_accesses                     0                       # DTB write accesses
system.cpu01.dtb.write_hits                         0                       # DTB write hits
system.cpu01.dtb.write_misses                       0                       # DTB write misses
system.cpu01.idle_fraction                   0.976541                       # Percentage of idle cycles
system.cpu01.itb.accesses                           0                       # DTB accesses
system.cpu01.itb.hits                               0                       # DTB hits
system.cpu01.itb.misses                             0                       # DTB misses
system.cpu01.itb.pwrStateResidencyTicks::UNDEFINED    508480000                       # Cumulative time (in ticks) in various power states
system.cpu01.itb.read_accesses                      0                       # DTB read accesses
system.cpu01.itb.read_hits                          0                       # DTB read hits
system.cpu01.itb.read_misses                        0                       # DTB read misses
system.cpu01.itb.write_accesses                     0                       # DTB write accesses
system.cpu01.itb.write_hits                         0                       # DTB write hits
system.cpu01.itb.write_misses                       0                       # DTB write misses
system.cpu01.not_idle_fraction               0.023459                       # Percentage of non-idle cycles
system.cpu01.numCycles                        1016959                       # number of cpu cycles simulated
system.cpu01.numPwrStateTransitions                 2                       # Number of power state transitions
system.cpu01.numWorkItemsCompleted                  0                       # number of work items this cpu completed
system.cpu01.numWorkItemsStarted                    0                       # number of work items this cpu started
system.cpu01.num_busy_cycles             23856.978494                       # Number of busy cycles
system.cpu01.num_conditional_control_insts          471                       # number of instructions that are conditional controls
system.cpu01.num_fp_alu_accesses                   12                       # Number of float alu accesses
system.cpu01.num_fp_insts                          12                       # number of float instructions
system.cpu01.num_fp_register_reads                 12                       # number of times the floating registers were read
system.cpu01.num_fp_register_writes                 0                       # number of times the floating registers were written
system.cpu01.num_func_calls                       432                       # number of times a function call or return occured
system.cpu01.num_idle_cycles             993102.021506                       # Number of idle cycles
system.cpu01.num_int_alu_accesses                4747                       # Number of integer alu accesses
system.cpu01.num_int_insts                       4747                       # number of integer instructions
system.cpu01.num_int_register_reads              5468                       # number of times the integer registers were read
system.cpu01.num_int_register_writes             3522                       # number of times the integer registers were written
system.cpu01.num_load_insts                      1181                       # Number of load instructions
system.cpu01.num_mem_refs                        1751                       # number of memory refs
system.cpu01.num_store_insts                      570                       # Number of store instructions
system.cpu01.num_vec_alu_accesses                   0                       # Number of vector alu accesses
system.cpu01.num_vec_insts                          0                       # number of vector instructions
system.cpu01.num_vec_register_reads                 0                       # number of times the vector registers were read
system.cpu01.num_vec_register_writes                0                       # number of times the vector registers were written
system.cpu01.op_class::No_OpClass                  10      0.21%      0.21% # Class of executed instruction
system.cpu01.op_class::IntAlu                    3068     63.49%     63.70% # Class of executed instruction
system.cpu01.op_class::IntMult                      1      0.02%     63.72% # Class of executed instruction
system.cpu01.op_class::IntDiv                       2      0.04%     63.76% # Class of executed instruction
system.cpu01.op_class::FloatAdd                     0      0.00%     63.76% # Class of executed instruction
system.cpu01.op_class::FloatCmp                     0      0.00%     63.76% # Class of executed instruction
system.cpu01.op_class::FloatCvt                     0      0.00%     63.76% # Class of executed instruction
system.cpu01.op_class::FloatMult                    0      0.00%     63.76% # Class of executed instruction
system.cpu01.op_class::FloatMultAcc                 0      0.00%     63.76% # Class of executed instruction
system.cpu01.op_class::FloatDiv                     0      0.00%     63.76% # Class of executed instruction
system.cpu01.op_class::FloatMisc                    0      0.00%     63.76% # Class of executed instruction
system.cpu01.op_class::FloatSqrt                    0      0.00%     63.76% # Class of executed instruction
system.cpu01.op_class::SimdAdd                      0      0.00%     63.76% # Class of executed instruction
system.cpu01.op_class::SimdAddAcc                   0      0.00%     63.76% # Class of executed instruction
system.cpu01.op_class::SimdAlu                      0      0.00%     63.76% # Class of executed instruction
system.cpu01.op_class::SimdCmp                      0      0.00%     63.76% # Class of executed instruction
system.cpu01.op_class::SimdCvt                      0      0.00%     63.76% # Class of executed instruction
system.cpu01.op_class::SimdMisc                     0      0.00%     63.76% # Class of executed instruction
system.cpu01.op_class::SimdMult                     0      0.00%     63.76% # Class of executed instruction
system.cpu01.op_class::SimdMultAcc                  0      0.00%     63.76% # Class of executed instruction
system.cpu01.op_class::SimdShift                    0      0.00%     63.76% # Class of executed instruction
system.cpu01.op_class::SimdShiftAcc                 0      0.00%     63.76% # Class of executed instruction
system.cpu01.op_class::SimdSqrt                     0      0.00%     63.76% # Class of executed instruction
system.cpu01.op_class::SimdFloatAdd                 0      0.00%     63.76% # Class of executed instruction
system.cpu01.op_class::SimdFloatAlu                 0      0.00%     63.76% # Class of executed instruction
system.cpu01.op_class::SimdFloatCmp                 0      0.00%     63.76% # Class of executed instruction
system.cpu01.op_class::SimdFloatCvt                 0      0.00%     63.76% # Class of executed instruction
system.cpu01.op_class::SimdFloatDiv                 0      0.00%     63.76% # Class of executed instruction
system.cpu01.op_class::SimdFloatMisc                0      0.00%     63.76% # Class of executed instruction
system.cpu01.op_class::SimdFloatMult                0      0.00%     63.76% # Class of executed instruction
system.cpu01.op_class::SimdFloatMultAcc             0      0.00%     63.76% # Class of executed instruction
system.cpu01.op_class::SimdFloatSqrt                0      0.00%     63.76% # Class of executed instruction
system.cpu01.op_class::SimdAes                      0      0.00%     63.76% # Class of executed instruction
system.cpu01.op_class::SimdAesMix                   0      0.00%     63.76% # Class of executed instruction
system.cpu01.op_class::SimdSha1Hash                 0      0.00%     63.76% # Class of executed instruction
system.cpu01.op_class::SimdSha1Hash2                0      0.00%     63.76% # Class of executed instruction
system.cpu01.op_class::SimdSha256Hash               0      0.00%     63.76% # Class of executed instruction
system.cpu01.op_class::SimdSha256Hash2              0      0.00%     63.76% # Class of executed instruction
system.cpu01.op_class::SimdShaSigma2                0      0.00%     63.76% # Class of executed instruction
system.cpu01.op_class::SimdShaSigma3                0      0.00%     63.76% # Class of executed instruction
system.cpu01.op_class::MemRead                   1185     24.52%     88.29% # Class of executed instruction
system.cpu01.op_class::MemWrite                   554     11.47%     99.75% # Class of executed instruction
system.cpu01.op_class::FloatMemRead                 0      0.00%     99.75% # Class of executed instruction
system.cpu01.op_class::FloatMemWrite               12      0.25%    100.00% # Class of executed instruction
system.cpu01.op_class::IprAccess                    0      0.00%    100.00% # Class of executed instruction
system.cpu01.op_class::InstPrefetch                 0      0.00%    100.00% # Class of executed instruction
system.cpu01.op_class::total                     4832                       # Class of executed instruction
system.cpu01.pwrStateClkGateDist::samples            1                       # Distribution of time spent in the clock gated state
system.cpu01.pwrStateClkGateDist::mean      102820500                       # Distribution of time spent in the clock gated state
system.cpu01.pwrStateClkGateDist::1000-5e+10            1    100.00%    100.00% # Distribution of time spent in the clock gated state
system.cpu01.pwrStateClkGateDist::min_value    102820500                       # Distribution of time spent in the clock gated state
system.cpu01.pwrStateClkGateDist::max_value    102820500                       # Distribution of time spent in the clock gated state
system.cpu01.pwrStateClkGateDist::total             1                       # Distribution of time spent in the clock gated state
system.cpu01.pwrStateResidencyTicks::ON     405659500                       # Cumulative time (in ticks) in various power states
system.cpu01.pwrStateResidencyTicks::CLK_GATED    102820500                       # Cumulative time (in ticks) in various power states
system.cpu02.Branches                             902                       # Number of branches fetched
system.cpu02.committedInsts                      4812                       # Number of instructions committed
system.cpu02.committedOps                        4818                       # Number of ops (including micro ops) committed
system.cpu02.dtb.accesses                           0                       # DTB accesses
system.cpu02.dtb.hits                               0                       # DTB hits
system.cpu02.dtb.misses                             0                       # DTB misses
system.cpu02.dtb.pwrStateResidencyTicks::UNDEFINED    508480000                       # Cumulative time (in ticks) in various power states
system.cpu02.dtb.read_accesses                      0                       # DTB read accesses
system.cpu02.dtb.read_hits                          0                       # DTB read hits
system.cpu02.dtb.read_misses                        0                       # DTB read misses
system.cpu02.dtb.write_accesses                     0                       # DTB write accesses
system.cpu02.dtb.write_hits                         0                       # DTB write hits
system.cpu02.dtb.write_misses                       0                       # DTB write misses
system.cpu02.idle_fraction                   0.979079                       # Percentage of idle cycles
system.cpu02.itb.accesses                           0                       # DTB accesses
system.cpu02.itb.hits                               0                       # DTB hits
system.cpu02.itb.misses                             0                       # DTB misses
system.cpu02.itb.pwrStateResidencyTicks::UNDEFINED    508480000                       # Cumulative time (in ticks) in various power states
system.cpu02.itb.read_accesses                      0                       # DTB read accesses
system.cpu02.itb.read_hits                          0                       # DTB read hits
system.cpu02.itb.read_misses                        0                       # DTB read misses
system.cpu02.itb.write_accesses                     0                       # DTB write accesses
system.cpu02.itb.write_hits                         0                       # DTB write hits
system.cpu02.itb.write_misses                       0                       # DTB write misses
system.cpu02.not_idle_fraction               0.020921                       # Percentage of non-idle cycles
system.cpu02.numCycles                        1016960                       # number of cpu cycles simulated
system.cpu02.numPwrStateTransitions                 2                       # Number of power state transitions
system.cpu02.numWorkItemsCompleted                  0                       # number of work items this cpu completed
system.cpu02.numWorkItemsStarted                    0                       # number of work items this cpu started
system.cpu02.num_busy_cycles             21276.001958                       # Number of busy cycles
system.cpu02.num_conditional_control_insts          471                       # number of instructions that are conditional controls
system.cpu02.num_fp_alu_accesses                   12                       # Number of float alu accesses
system.cpu02.num_fp_insts                          12                       # number of float instructions
system.cpu02.num_fp_register_reads                 12                       # number of times the floating registers were read
system.cpu02.num_fp_register_writes                 0                       # number of times the floating registers were written
system.cpu02.num_func_calls                       431                       # number of times a function call or return occured
system.cpu02.num_idle_cycles             995683.998042                       # Number of idle cycles
system.cpu02.num_int_alu_accesses                4734                       # Number of integer alu accesses
system.cpu02.num_int_insts                       4734                       # number of integer instructions
system.cpu02.num_int_register_reads              5455                       # number of times the integer registers were read
system.cpu02.num_int_register_writes             3511                       # number of times the integer registers were written
system.cpu02.num_load_insts                      1176                       # Number of load instructions
system.cpu02.num_mem_refs                        1745                       # number of memory refs
system.cpu02.num_store_insts                      569                       # Number of store instructions
system.cpu02.num_vec_alu_accesses                   0                       # Number of vector alu accesses
system.cpu02.num_vec_insts                          0                       # number of vector instructions
system.cpu02.num_vec_register_reads                 0                       # number of times the vector registers were read
system.cpu02.num_vec_register_writes                0                       # number of times the vector registers were written
system.cpu02.op_class::No_OpClass                  10      0.21%      0.21% # Class of executed instruction
system.cpu02.op_class::IntAlu                    3062     63.53%     63.73% # Class of executed instruction
system.cpu02.op_class::IntMult                      1      0.02%     63.76% # Class of executed instruction
system.cpu02.op_class::IntDiv                       2      0.04%     63.80% # Class of executed instruction
system.cpu02.op_class::FloatAdd                     0      0.00%     63.80% # Class of executed instruction
system.cpu02.op_class::FloatCmp                     0      0.00%     63.80% # Class of executed instruction
system.cpu02.op_class::FloatCvt                     0      0.00%     63.80% # Class of executed instruction
system.cpu02.op_class::FloatMult                    0      0.00%     63.80% # Class of executed instruction
system.cpu02.op_class::FloatMultAcc                 0      0.00%     63.80% # Class of executed instruction
system.cpu02.op_class::FloatDiv                     0      0.00%     63.80% # Class of executed instruction
system.cpu02.op_class::FloatMisc                    0      0.00%     63.80% # Class of executed instruction
system.cpu02.op_class::FloatSqrt                    0      0.00%     63.80% # Class of executed instruction
system.cpu02.op_class::SimdAdd                      0      0.00%     63.80% # Class of executed instruction
system.cpu02.op_class::SimdAddAcc                   0      0.00%     63.80% # Class of executed instruction
system.cpu02.op_class::SimdAlu                      0      0.00%     63.80% # Class of executed instruction
system.cpu02.op_class::SimdCmp                      0      0.00%     63.80% # Class of executed instruction
system.cpu02.op_class::SimdCvt                      0      0.00%     63.80% # Class of executed instruction
system.cpu02.op_class::SimdMisc                     0      0.00%     63.80% # Class of executed instruction
system.cpu02.op_class::SimdMult                     0      0.00%     63.80% # Class of executed instruction
system.cpu02.op_class::SimdMultAcc                  0      0.00%     63.80% # Class of executed instruction
system.cpu02.op_class::SimdShift                    0      0.00%     63.80% # Class of executed instruction
system.cpu02.op_class::SimdShiftAcc                 0      0.00%     63.80% # Class of executed instruction
system.cpu02.op_class::SimdSqrt                     0      0.00%     63.80% # Class of executed instruction
system.cpu02.op_class::SimdFloatAdd                 0      0.00%     63.80% # Class of executed instruction
system.cpu02.op_class::SimdFloatAlu                 0      0.00%     63.80% # Class of executed instruction
system.cpu02.op_class::SimdFloatCmp                 0      0.00%     63.80% # Class of executed instruction
system.cpu02.op_class::SimdFloatCvt                 0      0.00%     63.80% # Class of executed instruction
system.cpu02.op_class::SimdFloatDiv                 0      0.00%     63.80% # Class of executed instruction
system.cpu02.op_class::SimdFloatMisc                0      0.00%     63.80% # Class of executed instruction
system.cpu02.op_class::SimdFloatMult                0      0.00%     63.80% # Class of executed instruction
system.cpu02.op_class::SimdFloatMultAcc             0      0.00%     63.80% # Class of executed instruction
system.cpu02.op_class::SimdFloatSqrt                0      0.00%     63.80% # Class of executed instruction
system.cpu02.op_class::SimdAes                      0      0.00%     63.80% # Class of executed instruction
system.cpu02.op_class::SimdAesMix                   0      0.00%     63.80% # Class of executed instruction
system.cpu02.op_class::SimdSha1Hash                 0      0.00%     63.80% # Class of executed instruction
system.cpu02.op_class::SimdSha1Hash2                0      0.00%     63.80% # Class of executed instruction
system.cpu02.op_class::SimdSha256Hash               0      0.00%     63.80% # Class of executed instruction
system.cpu02.op_class::SimdSha256Hash2              0      0.00%     63.80% # Class of executed instruction
system.cpu02.op_class::SimdShaSigma2                0      0.00%     63.80% # Class of executed instruction
system.cpu02.op_class::SimdShaSigma3                0      0.00%     63.80% # Class of executed instruction
system.cpu02.op_class::MemRead                   1180     24.48%     88.28% # Class of executed instruction
system.cpu02.op_class::MemWrite                   553     11.47%     99.75% # Class of executed instruction
system.cpu02.op_class::FloatMemRead                 0      0.00%     99.75% # Class of executed instruction
system.cpu02.op_class::FloatMemWrite               12      0.25%    100.00% # Class of executed instruction
system.cpu02.op_class::IprAccess                    0      0.00%    100.00% # Class of executed instruction
system.cpu02.op_class::InstPrefetch                 0      0.00%    100.00% # Class of executed instruction
system.cpu02.op_class::total                     4820                       # Class of executed instruction
system.cpu02.pwrStateClkGateDist::samples            1                       # Distribution of time spent in the clock gated state
system.cpu02.pwrStateClkGateDist::mean       97152500                       # Distribution of time spent in the clock gated state
system.cpu02.pwrStateClkGateDist::1000-5e+10            1    100.00%    100.00% # Distribution of time spent in the clock gated state
system.cpu02.pwrStateClkGateDist::min_value     97152500                       # Distribution of time spent in the clock gated state
system.cpu02.pwrStateClkGateDist::max_value     97152500                       # Distribution of time spent in the clock gated state
system.cpu02.pwrStateClkGateDist::total             1                       # Distribution of time spent in the clock gated state
system.cpu02.pwrStateResidencyTicks::ON     411327500                       # Cumulative time (in ticks) in various power states
system.cpu02.pwrStateResidencyTicks::CLK_GATED     97152500                       # Cumulative time (in ticks) in various power states
system.cpu03.Branches                             912                       # Number of branches fetched
system.cpu03.committedInsts                      4825                       # Number of instructions committed
system.cpu03.committedOps                        4831                       # Number of ops (including micro ops) committed
system.cpu03.dtb.accesses                           0                       # DTB accesses
system.cpu03.dtb.hits                               0                       # DTB hits
system.cpu03.dtb.misses                             0                       # DTB misses
system.cpu03.dtb.pwrStateResidencyTicks::UNDEFINED    508480000                       # Cumulative time (in ticks) in various power states
system.cpu03.dtb.read_accesses                      0                       # DTB read accesses
system.cpu03.dtb.read_hits                          0                       # DTB read hits
system.cpu03.dtb.read_misses                        0                       # DTB read misses
system.cpu03.dtb.write_accesses                     0                       # DTB write accesses
system.cpu03.dtb.write_hits                         0                       # DTB write hits
system.cpu03.dtb.write_misses                       0                       # DTB write misses
system.cpu03.idle_fraction                   0.979205                       # Percentage of idle cycles
system.cpu03.itb.accesses                           0                       # DTB accesses
system.cpu03.itb.hits                               0                       # DTB hits
system.cpu03.itb.misses                             0                       # DTB misses
system.cpu03.itb.pwrStateResidencyTicks::UNDEFINED    508480000                       # Cumulative time (in ticks) in various power states
system.cpu03.itb.read_accesses                      0                       # DTB read accesses
system.cpu03.itb.read_hits                          0                       # DTB read hits
system.cpu03.itb.read_misses                        0                       # DTB read misses
system.cpu03.itb.write_accesses                     0                       # DTB write accesses
system.cpu03.itb.write_hits                         0                       # DTB write hits
system.cpu03.itb.write_misses                       0                       # DTB write misses
system.cpu03.not_idle_fraction               0.020795                       # Percentage of non-idle cycles
system.cpu03.numCycles                        1016960                       # number of cpu cycles simulated
system.cpu03.numPwrStateTransitions                 2                       # Number of power state transitions
system.cpu03.numWorkItemsCompleted                  0                       # number of work items this cpu completed
system.cpu03.numWorkItemsStarted                    0                       # number of work items this cpu started
system.cpu03.num_busy_cycles             21148.001958                       # Number of busy cycles
system.cpu03.num_conditional_control_insts          463                       # number of instructions that are conditional controls
system.cpu03.num_fp_alu_accesses                   12                       # Number of float alu accesses
system.cpu03.num_fp_insts                          12                       # number of float instructions
system.cpu03.num_fp_register_reads                 12                       # number of times the floating registers were read
system.cpu03.num_fp_register_writes                 0                       # number of times the floating registers were written
system.cpu03.num_func_calls                       449                       # number of times a function call or return occured
system.cpu03.num_idle_cycles             995811.998042                       # Number of idle cycles
system.cpu03.num_int_alu_accesses                4731                       # Number of integer alu accesses
system.cpu03.num_int_insts                       4731                       # number of integer instructions
system.cpu03.num_int_register_reads              5457                       # number of times the integer registers were read
system.cpu03.num_int_register_writes             3512                       # number of times the integer registers were written
system.cpu03.num_load_insts                      1179                       # Number of load instructions
system.cpu03.num_mem_refs                        1747                       # number of memory refs
system.cpu03.num_store_insts                      568                       # Number of store instructions
system.cpu03.num_vec_alu_accesses                   0                       # Number of vector alu accesses
system.cpu03.num_vec_insts                          0                       # number of vector instructions
system.cpu03.num_vec_register_reads                 0                       # number of times the vector registers were read
system.cpu03.num_vec_register_writes                0                       # number of times the vector registers were written
system.cpu03.op_class::No_OpClass                  10      0.21%      0.21% # Class of executed instruction
system.cpu03.op_class::IntAlu                    3073     63.58%     63.79% # Class of executed instruction
system.cpu03.op_class::IntMult                      1      0.02%     63.81% # Class of executed instruction
system.cpu03.op_class::IntDiv                       2      0.04%     63.85% # Class of executed instruction
system.cpu03.op_class::FloatAdd                     0      0.00%     63.85% # Class of executed instruction
system.cpu03.op_class::FloatCmp                     0      0.00%     63.85% # Class of executed instruction
system.cpu03.op_class::FloatCvt                     0      0.00%     63.85% # Class of executed instruction
system.cpu03.op_class::FloatMult                    0      0.00%     63.85% # Class of executed instruction
system.cpu03.op_class::FloatMultAcc                 0      0.00%     63.85% # Class of executed instruction
system.cpu03.op_class::FloatDiv                     0      0.00%     63.85% # Class of executed instruction
system.cpu03.op_class::FloatMisc                    0      0.00%     63.85% # Class of executed instruction
system.cpu03.op_class::FloatSqrt                    0      0.00%     63.85% # Class of executed instruction
system.cpu03.op_class::SimdAdd                      0      0.00%     63.85% # Class of executed instruction
system.cpu03.op_class::SimdAddAcc                   0      0.00%     63.85% # Class of executed instruction
system.cpu03.op_class::SimdAlu                      0      0.00%     63.85% # Class of executed instruction
system.cpu03.op_class::SimdCmp                      0      0.00%     63.85% # Class of executed instruction
system.cpu03.op_class::SimdCvt                      0      0.00%     63.85% # Class of executed instruction
system.cpu03.op_class::SimdMisc                     0      0.00%     63.85% # Class of executed instruction
system.cpu03.op_class::SimdMult                     0      0.00%     63.85% # Class of executed instruction
system.cpu03.op_class::SimdMultAcc                  0      0.00%     63.85% # Class of executed instruction
system.cpu03.op_class::SimdShift                    0      0.00%     63.85% # Class of executed instruction
system.cpu03.op_class::SimdShiftAcc                 0      0.00%     63.85% # Class of executed instruction
system.cpu03.op_class::SimdSqrt                     0      0.00%     63.85% # Class of executed instruction
system.cpu03.op_class::SimdFloatAdd                 0      0.00%     63.85% # Class of executed instruction
system.cpu03.op_class::SimdFloatAlu                 0      0.00%     63.85% # Class of executed instruction
system.cpu03.op_class::SimdFloatCmp                 0      0.00%     63.85% # Class of executed instruction
system.cpu03.op_class::SimdFloatCvt                 0      0.00%     63.85% # Class of executed instruction
system.cpu03.op_class::SimdFloatDiv                 0      0.00%     63.85% # Class of executed instruction
system.cpu03.op_class::SimdFloatMisc                0      0.00%     63.85% # Class of executed instruction
system.cpu03.op_class::SimdFloatMult                0      0.00%     63.85% # Class of executed instruction
system.cpu03.op_class::SimdFloatMultAcc             0      0.00%     63.85% # Class of executed instruction
system.cpu03.op_class::SimdFloatSqrt                0      0.00%     63.85% # Class of executed instruction
system.cpu03.op_class::SimdAes                      0      0.00%     63.85% # Class of executed instruction
system.cpu03.op_class::SimdAesMix                   0      0.00%     63.85% # Class of executed instruction
system.cpu03.op_class::SimdSha1Hash                 0      0.00%     63.85% # Class of executed instruction
system.cpu03.op_class::SimdSha1Hash2                0      0.00%     63.85% # Class of executed instruction
system.cpu03.op_class::SimdSha256Hash               0      0.00%     63.85% # Class of executed instruction
system.cpu03.op_class::SimdSha256Hash2              0      0.00%     63.85% # Class of executed instruction
system.cpu03.op_class::SimdShaSigma2                0      0.00%     63.85% # Class of executed instruction
system.cpu03.op_class::SimdShaSigma3                0      0.00%     63.85% # Class of executed instruction
system.cpu03.op_class::MemRead                   1183     24.48%     88.33% # Class of executed instruction
system.cpu03.op_class::MemWrite                   552     11.42%     99.75% # Class of executed instruction
system.cpu03.op_class::FloatMemRead                 0      0.00%     99.75% # Class of executed instruction
system.cpu03.op_class::FloatMemWrite               12      0.25%    100.00% # Class of executed instruction
system.cpu03.op_class::IprAccess                    0      0.00%    100.00% # Class of executed instruction
system.cpu03.op_class::InstPrefetch                 0      0.00%    100.00% # Class of executed instruction
system.cpu03.op_class::total                     4833                       # Class of executed instruction
system.cpu03.pwrStateClkGateDist::samples            1                       # Distribution of time spent in the clock gated state
system.cpu03.pwrStateClkGateDist::mean       90130500                       # Distribution of time spent in the clock gated state
system.cpu03.pwrStateClkGateDist::1000-5e+10            1    100.00%    100.00% # Distribution of time spent in the clock gated state
system.cpu03.pwrStateClkGateDist::min_value     90130500                       # Distribution of time spent in the clock gated state
system.cpu03.pwrStateClkGateDist::max_value     90130500                       # Distribution of time spent in the clock gated state
system.cpu03.pwrStateClkGateDist::total             1                       # Distribution of time spent in the clock gated state
system.cpu03.pwrStateResidencyTicks::ON     418349500                       # Cumulative time (in ticks) in various power states
system.cpu03.pwrStateResidencyTicks::CLK_GATED     90130500                       # Cumulative time (in ticks) in various power states
system.cpu04.Branches                             906                       # Number of branches fetched
system.cpu04.committedInsts                      4787                       # Number of instructions committed
system.cpu04.committedOps                        4793                       # Number of ops (including micro ops) committed
system.cpu04.dtb.accesses                           0                       # DTB accesses
system.cpu04.dtb.hits                               0                       # DTB hits
system.cpu04.dtb.misses                             0                       # DTB misses
system.cpu04.dtb.pwrStateResidencyTicks::UNDEFINED    508480000                       # Cumulative time (in ticks) in various power states
system.cpu04.dtb.read_accesses                      0                       # DTB read accesses
system.cpu04.dtb.read_hits                          0                       # DTB read hits
system.cpu04.dtb.read_misses                        0                       # DTB read misses
system.cpu04.dtb.write_accesses                     0                       # DTB write accesses
system.cpu04.dtb.write_hits                         0                       # DTB write hits
system.cpu04.dtb.write_misses                       0                       # DTB write misses
system.cpu04.idle_fraction                   0.978679                       # Percentage of idle cycles
system.cpu04.itb.accesses                           0                       # DTB accesses
system.cpu04.itb.hits                               0                       # DTB hits
system.cpu04.itb.misses                             0                       # DTB misses
system.cpu04.itb.pwrStateResidencyTicks::UNDEFINED    508480000                       # Cumulative time (in ticks) in various power states
system.cpu04.itb.read_accesses                      0                       # DTB read accesses
system.cpu04.itb.read_hits                          0                       # DTB read hits
system.cpu04.itb.read_misses                        0                       # DTB read misses
system.cpu04.itb.write_accesses                     0                       # DTB write accesses
system.cpu04.itb.write_hits                         0                       # DTB write hits
system.cpu04.itb.write_misses                       0                       # DTB write misses
system.cpu04.not_idle_fraction               0.021321                       # Percentage of non-idle cycles
system.cpu04.numCycles                        1016960                       # number of cpu cycles simulated
system.cpu04.numPwrStateTransitions                 2                       # Number of power state transitions
system.cpu04.numWorkItemsCompleted                  0                       # number of work items this cpu completed
system.cpu04.numWorkItemsStarted                    0                       # number of work items this cpu started
system.cpu04.num_busy_cycles             21683.001957                       # Number of busy cycles
system.cpu04.num_conditional_control_insts          458                       # number of instructions that are conditional controls
system.cpu04.num_fp_alu_accesses                   12                       # Number of float alu accesses
system.cpu04.num_fp_insts                          12                       # number of float instructions
system.cpu04.num_fp_register_reads                 12                       # number of times the floating registers were read
system.cpu04.num_fp_register_writes                 0                       # number of times the floating registers were written
system.cpu04.num_func_calls                       448                       # number of times a function call or return occured
system.cpu04.num_idle_cycles             995276.998043                       # Number of idle cycles
system.cpu04.num_int_alu_accesses                4692                       # Number of integer alu accesses
system.cpu04.num_int_insts                       4692                       # number of integer instructions
system.cpu04.num_int_register_reads              5411                       # number of times the integer registers were read
system.cpu04.num_int_register_writes             3483                       # number of times the integer registers were written
system.cpu04.num_load_insts                      1169                       # Number of load instructions
system.cpu04.num_mem_refs                        1732                       # number of memory refs
system.cpu04.num_store_insts                      563                       # Number of store instructions
system.cpu04.num_vec_alu_accesses                   0                       # Number of vector alu accesses
system.cpu04.num_vec_insts                          0                       # number of vector instructions
system.cpu04.num_vec_register_reads                 0                       # number of times the vector registers were read
system.cpu04.num_vec_register_writes                0                       # number of times the vector registers were written
system.cpu04.op_class::No_OpClass                  10      0.21%      0.21% # Class of executed instruction
system.cpu04.op_class::IntAlu                    3050     63.61%     63.82% # Class of executed instruction
system.cpu04.op_class::IntMult                      1      0.02%     63.84% # Class of executed instruction
system.cpu04.op_class::IntDiv                       2      0.04%     63.88% # Class of executed instruction
system.cpu04.op_class::FloatAdd                     0      0.00%     63.88% # Class of executed instruction
system.cpu04.op_class::FloatCmp                     0      0.00%     63.88% # Class of executed instruction
system.cpu04.op_class::FloatCvt                     0      0.00%     63.88% # Class of executed instruction
system.cpu04.op_class::FloatMult                    0      0.00%     63.88% # Class of executed instruction
system.cpu04.op_class::FloatMultAcc                 0      0.00%     63.88% # Class of executed instruction
system.cpu04.op_class::FloatDiv                     0      0.00%     63.88% # Class of executed instruction
system.cpu04.op_class::FloatMisc                    0      0.00%     63.88% # Class of executed instruction
system.cpu04.op_class::FloatSqrt                    0      0.00%     63.88% # Class of executed instruction
system.cpu04.op_class::SimdAdd                      0      0.00%     63.88% # Class of executed instruction
system.cpu04.op_class::SimdAddAcc                   0      0.00%     63.88% # Class of executed instruction
system.cpu04.op_class::SimdAlu                      0      0.00%     63.88% # Class of executed instruction
system.cpu04.op_class::SimdCmp                      0      0.00%     63.88% # Class of executed instruction
system.cpu04.op_class::SimdCvt                      0      0.00%     63.88% # Class of executed instruction
system.cpu04.op_class::SimdMisc                     0      0.00%     63.88% # Class of executed instruction
system.cpu04.op_class::SimdMult                     0      0.00%     63.88% # Class of executed instruction
system.cpu04.op_class::SimdMultAcc                  0      0.00%     63.88% # Class of executed instruction
system.cpu04.op_class::SimdShift                    0      0.00%     63.88% # Class of executed instruction
system.cpu04.op_class::SimdShiftAcc                 0      0.00%     63.88% # Class of executed instruction
system.cpu04.op_class::SimdSqrt                     0      0.00%     63.88% # Class of executed instruction
system.cpu04.op_class::SimdFloatAdd                 0      0.00%     63.88% # Class of executed instruction
system.cpu04.op_class::SimdFloatAlu                 0      0.00%     63.88% # Class of executed instruction
system.cpu04.op_class::SimdFloatCmp                 0      0.00%     63.88% # Class of executed instruction
system.cpu04.op_class::SimdFloatCvt                 0      0.00%     63.88% # Class of executed instruction
system.cpu04.op_class::SimdFloatDiv                 0      0.00%     63.88% # Class of executed instruction
system.cpu04.op_class::SimdFloatMisc                0      0.00%     63.88% # Class of executed instruction
system.cpu04.op_class::SimdFloatMult                0      0.00%     63.88% # Class of executed instruction
system.cpu04.op_class::SimdFloatMultAcc             0      0.00%     63.88% # Class of executed instruction
system.cpu04.op_class::SimdFloatSqrt                0      0.00%     63.88% # Class of executed instruction
system.cpu04.op_class::SimdAes                      0      0.00%     63.88% # Class of executed instruction
system.cpu04.op_class::SimdAesMix                   0      0.00%     63.88% # Class of executed instruction
system.cpu04.op_class::SimdSha1Hash                 0      0.00%     63.88% # Class of executed instruction
system.cpu04.op_class::SimdSha1Hash2                0      0.00%     63.88% # Class of executed instruction
system.cpu04.op_class::SimdSha256Hash               0      0.00%     63.88% # Class of executed instruction
system.cpu04.op_class::SimdSha256Hash2              0      0.00%     63.88% # Class of executed instruction
system.cpu04.op_class::SimdShaSigma2                0      0.00%     63.88% # Class of executed instruction
system.cpu04.op_class::SimdShaSigma3                0      0.00%     63.88% # Class of executed instruction
system.cpu04.op_class::MemRead                   1173     24.46%     88.34% # Class of executed instruction
system.cpu04.op_class::MemWrite                   547     11.41%     99.75% # Class of executed instruction
system.cpu04.op_class::FloatMemRead                 0      0.00%     99.75% # Class of executed instruction
system.cpu04.op_class::FloatMemWrite               12      0.25%    100.00% # Class of executed instruction
system.cpu04.op_class::IprAccess                    0      0.00%    100.00% # Class of executed instruction
system.cpu04.op_class::InstPrefetch                 0      0.00%    100.00% # Class of executed instruction
system.cpu04.op_class::total                     4795                       # Class of executed instruction
system.cpu04.pwrStateClkGateDist::samples            1                       # Distribution of time spent in the clock gated state
system.cpu04.pwrStateClkGateDist::mean       80942500                       # Distribution of time spent in the clock gated state
system.cpu04.pwrStateClkGateDist::1000-5e+10            1    100.00%    100.00% # Distribution of time spent in the clock gated state
system.cpu04.pwrStateClkGateDist::min_value     80942500                       # Distribution of time spent in the clock gated state
system.cpu04.pwrStateClkGateDist::max_value     80942500                       # Distribution of time spent in the clock gated state
system.cpu04.pwrStateClkGateDist::total             1                       # Distribution of time spent in the clock gated state
system.cpu04.pwrStateResidencyTicks::ON     427537500                       # Cumulative time (in ticks) in various power states
system.cpu04.pwrStateResidencyTicks::CLK_GATED     80942500                       # Cumulative time (in ticks) in various power states
system.cpu05.Branches                             899                       # Number of branches fetched
system.cpu05.committedInsts                      4760                       # Number of instructions committed
system.cpu05.committedOps                        4766                       # Number of ops (including micro ops) committed
system.cpu05.dtb.accesses                           0                       # DTB accesses
system.cpu05.dtb.hits                               0                       # DTB hits
system.cpu05.dtb.misses                             0                       # DTB misses
system.cpu05.dtb.pwrStateResidencyTicks::UNDEFINED    508480000                       # Cumulative time (in ticks) in various power states
system.cpu05.dtb.read_accesses                      0                       # DTB read accesses
system.cpu05.dtb.read_hits                          0                       # DTB read hits
system.cpu05.dtb.read_misses                        0                       # DTB read misses
system.cpu05.dtb.write_accesses                     0                       # DTB write accesses
system.cpu05.dtb.write_hits                         0                       # DTB write hits
system.cpu05.dtb.write_misses                       0                       # DTB write misses
system.cpu05.idle_fraction                   0.979400                       # Percentage of idle cycles
system.cpu05.itb.accesses                           0                       # DTB accesses
system.cpu05.itb.hits                               0                       # DTB hits
system.cpu05.itb.misses                             0                       # DTB misses
system.cpu05.itb.pwrStateResidencyTicks::UNDEFINED    508480000                       # Cumulative time (in ticks) in various power states
system.cpu05.itb.read_accesses                      0                       # DTB read accesses
system.cpu05.itb.read_hits                          0                       # DTB read hits
system.cpu05.itb.read_misses                        0                       # DTB read misses
system.cpu05.itb.write_accesses                     0                       # DTB write accesses
system.cpu05.itb.write_hits                         0                       # DTB write hits
system.cpu05.itb.write_misses                       0                       # DTB write misses
system.cpu05.not_idle_fraction               0.020600                       # Percentage of non-idle cycles
system.cpu05.numCycles                        1016959                       # number of cpu cycles simulated
system.cpu05.numPwrStateTransitions                 2                       # Number of power state transitions
system.cpu05.numWorkItemsCompleted                  0                       # number of work items this cpu completed
system.cpu05.numWorkItemsStarted                    0                       # number of work items this cpu started
system.cpu05.num_busy_cycles             20948.981359                       # Number of busy cycles
system.cpu05.num_conditional_control_insts          459                       # number of instructions that are conditional controls
system.cpu05.num_fp_alu_accesses                   12                       # Number of float alu accesses
system.cpu05.num_fp_insts                          12                       # number of float instructions
system.cpu05.num_fp_register_reads                 12                       # number of times the floating registers were read
system.cpu05.num_fp_register_writes                 0                       # number of times the floating registers were written
system.cpu05.num_func_calls                       440                       # number of times a function call or return occured
system.cpu05.num_idle_cycles             996010.018641                       # Number of idle cycles
system.cpu05.num_int_alu_accesses                4670                       # Number of integer alu accesses
system.cpu05.num_int_insts                       4670                       # number of integer instructions
system.cpu05.num_int_register_reads              5387                       # number of times the integer registers were read
system.cpu05.num_int_register_writes             3465                       # number of times the integer registers were written
system.cpu05.num_load_insts                      1164                       # Number of load instructions
system.cpu05.num_mem_refs                        1725                       # number of memory refs
system.cpu05.num_store_insts                      561                       # Number of store instructions
system.cpu05.num_vec_alu_accesses                   0                       # Number of vector alu accesses
system.cpu05.num_vec_insts                          0                       # number of vector instructions
system.cpu05.num_vec_register_reads                 0                       # number of times the vector registers were read
system.cpu05.num_vec_register_writes                0                       # number of times the vector registers were written
system.cpu05.op_class::No_OpClass                  10      0.21%      0.21% # Class of executed instruction
system.cpu05.op_class::IntAlu                    3030     63.55%     63.76% # Class of executed instruction
system.cpu05.op_class::IntMult                      1      0.02%     63.78% # Class of executed instruction
system.cpu05.op_class::IntDiv                       2      0.04%     63.82% # Class of executed instruction
system.cpu05.op_class::FloatAdd                     0      0.00%     63.82% # Class of executed instruction
system.cpu05.op_class::FloatCmp                     0      0.00%     63.82% # Class of executed instruction
system.cpu05.op_class::FloatCvt                     0      0.00%     63.82% # Class of executed instruction
system.cpu05.op_class::FloatMult                    0      0.00%     63.82% # Class of executed instruction
system.cpu05.op_class::FloatMultAcc                 0      0.00%     63.82% # Class of executed instruction
system.cpu05.op_class::FloatDiv                     0      0.00%     63.82% # Class of executed instruction
system.cpu05.op_class::FloatMisc                    0      0.00%     63.82% # Class of executed instruction
system.cpu05.op_class::FloatSqrt                    0      0.00%     63.82% # Class of executed instruction
system.cpu05.op_class::SimdAdd                      0      0.00%     63.82% # Class of executed instruction
system.cpu05.op_class::SimdAddAcc                   0      0.00%     63.82% # Class of executed instruction
system.cpu05.op_class::SimdAlu                      0      0.00%     63.82% # Class of executed instruction
system.cpu05.op_class::SimdCmp                      0      0.00%     63.82% # Class of executed instruction
system.cpu05.op_class::SimdCvt                      0      0.00%     63.82% # Class of executed instruction
system.cpu05.op_class::SimdMisc                     0      0.00%     63.82% # Class of executed instruction
system.cpu05.op_class::SimdMult                     0      0.00%     63.82% # Class of executed instruction
system.cpu05.op_class::SimdMultAcc                  0      0.00%     63.82% # Class of executed instruction
system.cpu05.op_class::SimdShift                    0      0.00%     63.82% # Class of executed instruction
system.cpu05.op_class::SimdShiftAcc                 0      0.00%     63.82% # Class of executed instruction
system.cpu05.op_class::SimdSqrt                     0      0.00%     63.82% # Class of executed instruction
system.cpu05.op_class::SimdFloatAdd                 0      0.00%     63.82% # Class of executed instruction
system.cpu05.op_class::SimdFloatAlu                 0      0.00%     63.82% # Class of executed instruction
system.cpu05.op_class::SimdFloatCmp                 0      0.00%     63.82% # Class of executed instruction
system.cpu05.op_class::SimdFloatCvt                 0      0.00%     63.82% # Class of executed instruction
system.cpu05.op_class::SimdFloatDiv                 0      0.00%     63.82% # Class of executed instruction
system.cpu05.op_class::SimdFloatMisc                0      0.00%     63.82% # Class of executed instruction
system.cpu05.op_class::SimdFloatMult                0      0.00%     63.82% # Class of executed instruction
system.cpu05.op_class::SimdFloatMultAcc             0      0.00%     63.82% # Class of executed instruction
system.cpu05.op_class::SimdFloatSqrt                0      0.00%     63.82% # Class of executed instruction
system.cpu05.op_class::SimdAes                      0      0.00%     63.82% # Class of executed instruction
system.cpu05.op_class::SimdAesMix                   0      0.00%     63.82% # Class of executed instruction
system.cpu05.op_class::SimdSha1Hash                 0      0.00%     63.82% # Class of executed instruction
system.cpu05.op_class::SimdSha1Hash2                0      0.00%     63.82% # Class of executed instruction
system.cpu05.op_class::SimdSha256Hash               0      0.00%     63.82% # Class of executed instruction
system.cpu05.op_class::SimdSha256Hash2              0      0.00%     63.82% # Class of executed instruction
system.cpu05.op_class::SimdShaSigma2                0      0.00%     63.82% # Class of executed instruction
system.cpu05.op_class::SimdShaSigma3                0      0.00%     63.82% # Class of executed instruction
system.cpu05.op_class::MemRead                   1168     24.50%     88.32% # Class of executed instruction
system.cpu05.op_class::MemWrite                   545     11.43%     99.75% # Class of executed instruction
system.cpu05.op_class::FloatMemRead                 0      0.00%     99.75% # Class of executed instruction
system.cpu05.op_class::FloatMemWrite               12      0.25%    100.00% # Class of executed instruction
system.cpu05.op_class::IprAccess                    0      0.00%    100.00% # Class of executed instruction
system.cpu05.op_class::InstPrefetch                 0      0.00%    100.00% # Class of executed instruction
system.cpu05.op_class::total                     4768                       # Class of executed instruction
system.cpu05.pwrStateClkGateDist::samples            1                       # Distribution of time spent in the clock gated state
system.cpu05.pwrStateClkGateDist::mean       74578000                       # Distribution of time spent in the clock gated state
system.cpu05.pwrStateClkGateDist::1000-5e+10            1    100.00%    100.00% # Distribution of time spent in the clock gated state
system.cpu05.pwrStateClkGateDist::min_value     74578000                       # Distribution of time spent in the clock gated state
system.cpu05.pwrStateClkGateDist::max_value     74578000                       # Distribution of time spent in the clock gated state
system.cpu05.pwrStateClkGateDist::total             1                       # Distribution of time spent in the clock gated state
system.cpu05.pwrStateResidencyTicks::ON     433902000                       # Cumulative time (in ticks) in various power states
system.cpu05.pwrStateResidencyTicks::CLK_GATED     74578000                       # Cumulative time (in ticks) in various power states
system.cpu06.Branches                             893                       # Number of branches fetched
system.cpu06.committedInsts                      4724                       # Number of instructions committed
system.cpu06.committedOps                        4730                       # Number of ops (including micro ops) committed
system.cpu06.dtb.accesses                           0                       # DTB accesses
system.cpu06.dtb.hits                               0                       # DTB hits
system.cpu06.dtb.misses                             0                       # DTB misses
system.cpu06.dtb.pwrStateResidencyTicks::UNDEFINED    508480000                       # Cumulative time (in ticks) in various power states
system.cpu06.dtb.read_accesses                      0                       # DTB read accesses
system.cpu06.dtb.read_hits                          0                       # DTB read hits
system.cpu06.dtb.read_misses                        0                       # DTB read misses
system.cpu06.dtb.write_accesses                     0                       # DTB write accesses
system.cpu06.dtb.write_hits                         0                       # DTB write hits
system.cpu06.dtb.write_misses                       0                       # DTB write misses
system.cpu06.idle_fraction                   0.979366                       # Percentage of idle cycles
system.cpu06.itb.accesses                           0                       # DTB accesses
system.cpu06.itb.hits                               0                       # DTB hits
system.cpu06.itb.misses                             0                       # DTB misses
system.cpu06.itb.pwrStateResidencyTicks::UNDEFINED    508480000                       # Cumulative time (in ticks) in various power states
system.cpu06.itb.read_accesses                      0                       # DTB read accesses
system.cpu06.itb.read_hits                          0                       # DTB read hits
system.cpu06.itb.read_misses                        0                       # DTB read misses
system.cpu06.itb.write_accesses                     0                       # DTB write accesses
system.cpu06.itb.write_hits                         0                       # DTB write hits
system.cpu06.itb.write_misses                       0                       # DTB write misses
system.cpu06.not_idle_fraction               0.020634                       # Percentage of non-idle cycles
system.cpu06.numCycles                        1016959                       # number of cpu cycles simulated
system.cpu06.numPwrStateTransitions                 2                       # Number of power state transitions
system.cpu06.numWorkItemsCompleted                  0                       # number of work items this cpu completed
system.cpu06.numWorkItemsStarted                    0                       # number of work items this cpu started
system.cpu06.num_busy_cycles             20983.981325                       # Number of busy cycles
system.cpu06.num_conditional_control_insts          453                       # number of instructions that are conditional controls
system.cpu06.num_fp_alu_accesses                   12                       # Number of float alu accesses
system.cpu06.num_fp_insts                          12                       # number of float instructions
system.cpu06.num_fp_register_reads                 12                       # number of times the floating registers were read
system.cpu06.num_fp_register_writes                 0                       # number of times the floating registers were written
system.cpu06.num_func_calls                       440                       # number of times a function call or return occured
system.cpu06.num_idle_cycles             995975.018675                       # Number of idle cycles
system.cpu06.num_int_alu_accesses                4632                       # Number of integer alu accesses
system.cpu06.num_int_insts                       4632                       # number of integer instructions
system.cpu06.num_int_register_reads              5343                       # number of times the integer registers were read
system.cpu06.num_int_register_writes             3437                       # number of times the integer registers were written
system.cpu06.num_load_insts                      1154                       # Number of load instructions
system.cpu06.num_mem_refs                        1712                       # number of memory refs
system.cpu06.num_store_insts                      558                       # Number of store instructions
system.cpu06.num_vec_alu_accesses                   0                       # Number of vector alu accesses
system.cpu06.num_vec_insts                          0                       # number of vector instructions
system.cpu06.num_vec_register_reads                 0                       # number of times the vector registers were read
system.cpu06.num_vec_register_writes                0                       # number of times the vector registers were written
system.cpu06.op_class::No_OpClass                  10      0.21%      0.21% # Class of executed instruction
system.cpu06.op_class::IntAlu                    3007     63.55%     63.76% # Class of executed instruction
system.cpu06.op_class::IntMult                      1      0.02%     63.78% # Class of executed instruction
system.cpu06.op_class::IntDiv                       2      0.04%     63.82% # Class of executed instruction
system.cpu06.op_class::FloatAdd                     0      0.00%     63.82% # Class of executed instruction
system.cpu06.op_class::FloatCmp                     0      0.00%     63.82% # Class of executed instruction
system.cpu06.op_class::FloatCvt                     0      0.00%     63.82% # Class of executed instruction
system.cpu06.op_class::FloatMult                    0      0.00%     63.82% # Class of executed instruction
system.cpu06.op_class::FloatMultAcc                 0      0.00%     63.82% # Class of executed instruction
system.cpu06.op_class::FloatDiv                     0      0.00%     63.82% # Class of executed instruction
system.cpu06.op_class::FloatMisc                    0      0.00%     63.82% # Class of executed instruction
system.cpu06.op_class::FloatSqrt                    0      0.00%     63.82% # Class of executed instruction
system.cpu06.op_class::SimdAdd                      0      0.00%     63.82% # Class of executed instruction
system.cpu06.op_class::SimdAddAcc                   0      0.00%     63.82% # Class of executed instruction
system.cpu06.op_class::SimdAlu                      0      0.00%     63.82% # Class of executed instruction
system.cpu06.op_class::SimdCmp                      0      0.00%     63.82% # Class of executed instruction
system.cpu06.op_class::SimdCvt                      0      0.00%     63.82% # Class of executed instruction
system.cpu06.op_class::SimdMisc                     0      0.00%     63.82% # Class of executed instruction
system.cpu06.op_class::SimdMult                     0      0.00%     63.82% # Class of executed instruction
system.cpu06.op_class::SimdMultAcc                  0      0.00%     63.82% # Class of executed instruction
system.cpu06.op_class::SimdShift                    0      0.00%     63.82% # Class of executed instruction
system.cpu06.op_class::SimdShiftAcc                 0      0.00%     63.82% # Class of executed instruction
system.cpu06.op_class::SimdSqrt                     0      0.00%     63.82% # Class of executed instruction
system.cpu06.op_class::SimdFloatAdd                 0      0.00%     63.82% # Class of executed instruction
system.cpu06.op_class::SimdFloatAlu                 0      0.00%     63.82% # Class of executed instruction
system.cpu06.op_class::SimdFloatCmp                 0      0.00%     63.82% # Class of executed instruction
system.cpu06.op_class::SimdFloatCvt                 0      0.00%     63.82% # Class of executed instruction
system.cpu06.op_class::SimdFloatDiv                 0      0.00%     63.82% # Class of executed instruction
system.cpu06.op_class::SimdFloatMisc                0      0.00%     63.82% # Class of executed instruction
system.cpu06.op_class::SimdFloatMult                0      0.00%     63.82% # Class of executed instruction
system.cpu06.op_class::SimdFloatMultAcc             0      0.00%     63.82% # Class of executed instruction
system.cpu06.op_class::SimdFloatSqrt                0      0.00%     63.82% # Class of executed instruction
system.cpu06.op_class::SimdAes                      0      0.00%     63.82% # Class of executed instruction
system.cpu06.op_class::SimdAesMix                   0      0.00%     63.82% # Class of executed instruction
system.cpu06.op_class::SimdSha1Hash                 0      0.00%     63.82% # Class of executed instruction
system.cpu06.op_class::SimdSha1Hash2                0      0.00%     63.82% # Class of executed instruction
system.cpu06.op_class::SimdSha256Hash               0      0.00%     63.82% # Class of executed instruction
system.cpu06.op_class::SimdSha256Hash2              0      0.00%     63.82% # Class of executed instruction
system.cpu06.op_class::SimdShaSigma2                0      0.00%     63.82% # Class of executed instruction
system.cpu06.op_class::SimdShaSigma3                0      0.00%     63.82% # Class of executed instruction
system.cpu06.op_class::MemRead                   1158     24.47%     88.29% # Class of executed instruction
system.cpu06.op_class::MemWrite                   542     11.45%     99.75% # Class of executed instruction
system.cpu06.op_class::FloatMemRead                 0      0.00%     99.75% # Class of executed instruction
system.cpu06.op_class::FloatMemWrite               12      0.25%    100.00% # Class of executed instruction
system.cpu06.op_class::IprAccess                    0      0.00%    100.00% # Class of executed instruction
system.cpu06.op_class::InstPrefetch                 0      0.00%    100.00% # Class of executed instruction
system.cpu06.op_class::total                     4732                       # Class of executed instruction
system.cpu06.pwrStateClkGateDist::samples            1                       # Distribution of time spent in the clock gated state
system.cpu06.pwrStateClkGateDist::mean       67456000                       # Distribution of time spent in the clock gated state
system.cpu06.pwrStateClkGateDist::1000-5e+10            1    100.00%    100.00% # Distribution of time spent in the clock gated state
system.cpu06.pwrStateClkGateDist::min_value     67456000                       # Distribution of time spent in the clock gated state
[...]
system.ruby.network.int_links39.credit_link.pwrStateResidencyTicks::UNDEFINED    508480000                       # Cumulative time (in ticks) in various power states
system.ruby.network.int_links39.network_link.pwrStateResidencyTicks::UNDEFINED    508480000                       # Cumulative time (in ticks) in various power states
system.ruby.network.int_links40.credit_link.pwrStateResidencyTicks::UNDEFINED    508480000                       # Cumulative time (in ticks) in various power states
system.ruby.network.int_links40.network_link.pwrStateResidencyTicks::UNDEFINED    508480000                       # Cumulative time (in ticks) in various power states
system.ruby.network.int_links41.credit_link.pwrStateResidencyTicks::UNDEFINED    508480000                       # Cumulative time (in ticks) in various power states
system.ruby.network.int_links41.network_link.pwrStateResidencyTicks::UNDEFINED    508480000                       # Cumulative time (in ticks) in various power states
system.ruby.network.int_links42.credit_link.pwrStateResidencyTicks::UNDEFINED    508480000                       # Cumulative time (in ticks) in various power states
system.ruby.network.int_links42.network_link.pwrStateResidencyTicks::UNDEFINED    508480000                       # Cumulative time (in ticks) in various power states
system.ruby.network.int_links43.credit_link.pwrStateResidencyTicks::UNDEFINED    508480000                       # Cumulative time (in ticks) in various power states
system.ruby.network.int_links43.network_link.pwrStateResidencyTicks::UNDEFINED    508480000                       # Cumulative time (in ticks) in various power states
system.ruby.network.int_links44.credit_link.pwrStateResidencyTicks::UNDEFINED    508480000                       # Cumulative time (in ticks) in various power states
system.ruby.network.int_links44.network_link.pwrStateResidencyTicks::UNDEFINED    508480000                       # Cumulative time (in ticks) in various power states
system.ruby.network.int_links45.credit_link.pwrStateResidencyTicks::UNDEFINED    508480000                       # Cumulative time (in ticks) in various power states
system.ruby.network.int_links45.network_link.pwrStateResidencyTicks::UNDEFINED    508480000                       # Cumulative time (in ticks) in various power states
system.ruby.network.int_links46.credit_link.pwrStateResidencyTicks::UNDEFINED    508480000                       # Cumulative time (in ticks) in various power states
system.ruby.network.int_links46.network_link.pwrStateResidencyTicks::UNDEFINED    508480000                       # Cumulative time (in ticks) in various power states
system.ruby.network.int_links47.credit_link.pwrStateResidencyTicks::UNDEFINED    508480000                       # Cumulative time (in ticks) in various power states
system.ruby.network.int_links47.network_link.pwrStateResidencyTicks::UNDEFINED    508480000                       # Cumulative time (in ticks) in various power states
system.ruby.network.netifs00.pwrStateResidencyTicks::UNDEFINED    508480000                       # Cumulative time (in ticks) in various power states
system.ruby.network.netifs01.pwrStateResidencyTicks::UNDEFINED    508480000                       # Cumulative time (in ticks) in various power states
system.ruby.network.netifs02.pwrStateResidencyTicks::UNDEFINED    508480000                       # Cumulative time (in ticks) in various power states
system.ruby.network.netifs03.pwrStateResidencyTicks::UNDEFINED    508480000                       # Cumulative time (in ticks) in various power states
system.ruby.network.netifs04.pwrStateResidencyTicks::UNDEFINED    508480000                       # Cumulative time (in ticks) in various power states
system.ruby.network.netifs05.pwrStateResidencyTicks::UNDEFINED    508480000                       # Cumulative time (in ticks) in various power states
system.ruby.network.netifs06.pwrStateResidencyTicks::UNDEFINED    508480000                       # Cumulative time (in ticks) in various power states
system.ruby.network.netifs07.pwrStateResidencyTicks::UNDEFINED    508480000                       # Cumulative time (in ticks) in various power states
system.ruby.network.netifs08.pwrStateResidencyTicks::UNDEFINED    508480000                       # Cumulative time (in ticks) in various power states
system.ruby.network.netifs09.pwrStateResidencyTicks::UNDEFINED    508480000                       # Cumulative time (in ticks) in various power states
system.ruby.network.netifs10.pwrStateResidencyTicks::UNDEFINED    508480000                       # Cumulative time (in ticks) in various power states
system.ruby.network.netifs11.pwrStateResidencyTicks::UNDEFINED    508480000                       # Cumulative time (in ticks) in various power states
system.ruby.network.netifs12.pwrStateResidencyTicks::UNDEFINED    508480000                       # Cumulative time (in ticks) in various power states
system.ruby.network.netifs13.pwrStateResidencyTicks::UNDEFINED    508480000                       # Cumulative time (in ticks) in various power states
system.ruby.network.netifs14.pwrStateResidencyTicks::UNDEFINED    508480000                       # Cumulative time (in ticks) in various power states
system.ruby.network.netifs15.pwrStateResidencyTicks::UNDEFINED    508480000                       # Cumulative time (in ticks) in various power states
system.ruby.network.netifs16.pwrStateResidencyTicks::UNDEFINED    508480000                       # Cumulative time (in ticks) in various power states
system.ruby.network.netifs17.pwrStateResidencyTicks::UNDEFINED    508480000                       # Cumulative time (in ticks) in various power states
system.ruby.network.netifs18.pwrStateResidencyTicks::UNDEFINED    508480000                       # Cumulative time (in ticks) in various power states
system.ruby.network.netifs19.pwrStateResidencyTicks::UNDEFINED    508480000                       # Cumulative time (in ticks) in various power states
system.ruby.network.netifs20.pwrStateResidencyTicks::UNDEFINED    508480000                       # Cumulative time (in ticks) in various power states
system.ruby.network.netifs21.pwrStateResidencyTicks::UNDEFINED    508480000                       # Cumulative time (in ticks) in various power states
system.ruby.network.netifs22.pwrStateResidencyTicks::UNDEFINED    508480000                       # Cumulative time (in ticks) in various power states
system.ruby.network.netifs23.pwrStateResidencyTicks::UNDEFINED    508480000                       # Cumulative time (in ticks) in various power states
system.ruby.network.netifs24.pwrStateResidencyTicks::UNDEFINED    508480000                       # Cumulative time (in ticks) in various power states
system.ruby.network.netifs25.pwrStateResidencyTicks::UNDEFINED    508480000                       # Cumulative time (in ticks) in various power states
system.ruby.network.netifs26.pwrStateResidencyTicks::UNDEFINED    508480000                       # Cumulative time (in ticks) in various power states
system.ruby.network.netifs27.pwrStateResidencyTicks::UNDEFINED    508480000                       # Cumulative time (in ticks) in various power states
system.ruby.network.netifs28.pwrStateResidencyTicks::UNDEFINED    508480000                       # Cumulative time (in ticks) in various power states
system.ruby.network.netifs29.pwrStateResidencyTicks::UNDEFINED    508480000                       # Cumulative time (in ticks) in various power states
system.ruby.network.netifs30.pwrStateResidencyTicks::UNDEFINED    508480000                       # Cumulative time (in ticks) in various power states
system.ruby.network.netifs31.pwrStateResidencyTicks::UNDEFINED    508480000                       # Cumulative time (in ticks) in various power states
system.ruby.network.netifs32.pwrStateResidencyTicks::UNDEFINED    508480000                       # Cumulative time (in ticks) in various power states
system.ruby.network.netifs33.pwrStateResidencyTicks::UNDEFINED    508480000                       # Cumulative time (in ticks) in various power states
system.ruby.network.netifs34.pwrStateResidencyTicks::UNDEFINED    508480000                       # Cumulative time (in ticks) in various power states
system.ruby.network.netifs35.pwrStateResidencyTicks::UNDEFINED    508480000                       # Cumulative time (in ticks) in various power states
system.ruby.network.packet_network_latency |      211365                       |      234388                       |       51691                      
system.ruby.network.packet_queueing_latency |      115091                       |       29080                       |        6258                      
system.ruby.network.packets_injected     |       18556     42.77%     42.77% |       18733     43.18%     85.95% |        6097     14.05%    100.00%
system.ruby.network.packets_injected::total        43386                      
system.ruby.network.packets_received     |       18556     42.77%     42.77% |       18733     43.18%     85.95% |        6097     14.05%    100.00%
system.ruby.network.packets_received::total        43386                      
system.ruby.network.pwrStateResidencyTicks::UNDEFINED    508480000                       # Cumulative time (in ticks) in various power states
system.ruby.network.routers00.buffer_reads        88352                      
system.ruby.network.routers00.buffer_writes        88352                      
system.ruby.network.routers00.crossbar_activity        88352                      
system.ruby.network.routers00.pwrStateResidencyTicks::UNDEFINED    508480000                       # Cumulative time (in ticks) in various power states
system.ruby.network.routers00.sw_input_arbiter_activity        88376                      
system.ruby.network.routers00.sw_output_arbiter_activity        88352                      
system.ruby.network.routers01.buffer_reads        38572                      
system.ruby.network.routers01.buffer_writes        38572                      
system.ruby.network.routers01.crossbar_activity        38572                      
system.ruby.network.routers01.pwrStateResidencyTicks::UNDEFINED    508480000                       # Cumulative time (in ticks) in various power states
system.ruby.network.routers01.sw_input_arbiter_activity        38586                      
system.ruby.network.routers01.sw_output_arbiter_activity        38572                      
system.ruby.network.routers02.buffer_reads        25790                      
system.ruby.network.routers02.buffer_writes        25790                      
system.ruby.network.routers02.crossbar_activity        25790                      
system.ruby.network.routers02.pwrStateResidencyTicks::UNDEFINED    508480000                       # Cumulative time (in ticks) in various power states
system.ruby.network.routers02.sw_input_arbiter_activity        25815                      
system.ruby.network.routers02.sw_output_arbiter_activity        25790                      
system.ruby.network.routers03.buffer_reads        15598                      
system.ruby.network.routers03.buffer_writes        15598                      
system.ruby.network.routers03.crossbar_activity        15598                      
system.ruby.network.routers03.pwrStateResidencyTicks::UNDEFINED    508480000                       # Cumulative time (in ticks) in various power states
system.ruby.network.routers03.sw_input_arbiter_activity        15603                      
system.ruby.network.routers03.sw_output_arbiter_activity        15598                      
system.ruby.network.routers04.buffer_reads        49708                      
system.ruby.network.routers04.buffer_writes        49708                      
system.ruby.network.routers04.crossbar_activity        49708                      
system.ruby.network.routers04.pwrStateResidencyTicks::UNDEFINED    508480000                       # Cumulative time (in ticks) in various power states
system.ruby.network.routers04.sw_input_arbiter_activity        49724                      
system.ruby.network.routers04.sw_output_arbiter_activity        49708                      
system.ruby.network.routers05.buffer_reads        20216                      
system.ruby.network.routers05.buffer_writes        20216                      
system.ruby.network.routers05.crossbar_activity        20216                      
system.ruby.network.routers05.pwrStateResidencyTicks::UNDEFINED    508480000                       # Cumulative time (in ticks) in various power states
system.ruby.network.routers05.sw_input_arbiter_activity        20223                      
system.ruby.network.routers05.sw_output_arbiter_activity        20216                      
system.ruby.network.routers06.buffer_reads        16535                      
system.ruby.network.routers06.buffer_writes        16535                      
system.ruby.network.routers06.crossbar_activity        16535                      
system.ruby.network.routers06.pwrStateResidencyTicks::UNDEFINED    508480000                       # Cumulative time (in ticks) in various power states
system.ruby.network.routers06.sw_input_arbiter_activity        16546                      
system.ruby.network.routers06.sw_output_arbiter_activity        16535                      
system.ruby.network.routers07.buffer_reads        11496                      
system.ruby.network.routers07.buffer_writes        11496                      
system.ruby.network.routers07.crossbar_activity        11496                      
system.ruby.network.routers07.pwrStateResidencyTicks::UNDEFINED    508480000                       # Cumulative time (in ticks) in various power states
system.ruby.network.routers07.sw_input_arbiter_activity        11504                      
system.ruby.network.routers07.sw_output_arbiter_activity        11496                      
system.ruby.network.routers08.buffer_reads        32276                      
system.ruby.network.routers08.buffer_writes        32276                      
system.ruby.network.routers08.crossbar_activity        32276                      
system.ruby.network.routers08.pwrStateResidencyTicks::UNDEFINED    508480000                       # Cumulative time (in ticks) in various power states
system.ruby.network.routers08.sw_input_arbiter_activity        32288                      
system.ruby.network.routers08.sw_output_arbiter_activity        32276                      
system.ruby.network.routers09.buffer_reads        15890                      
system.ruby.network.routers09.buffer_writes        15890                      
system.ruby.network.routers09.crossbar_activity        15890                      
system.ruby.network.routers09.pwrStateResidencyTicks::UNDEFINED    508480000                       # Cumulative time (in ticks) in various power states
system.ruby.network.routers09.sw_input_arbiter_activity        15900                      
system.ruby.network.routers09.sw_output_arbiter_activity        15890                      
system.ruby.network.routers10.buffer_reads        15221                      
system.ruby.network.routers10.buffer_writes        15221                      
system.ruby.network.routers10.crossbar_activity        15221                      
system.ruby.network.routers10.pwrStateResidencyTicks::UNDEFINED    508480000                       # Cumulative time (in ticks) in various power states
system.ruby.network.routers10.sw_input_arbiter_activity        15227                      
system.ruby.network.routers10.sw_output_arbiter_activity        15221                      
system.ruby.network.routers11.buffer_reads        10539                      
system.ruby.network.routers11.buffer_writes        10539                      
system.ruby.network.routers11.crossbar_activity        10539                      
system.ruby.network.routers11.pwrStateResidencyTicks::UNDEFINED    508480000                       # Cumulative time (in ticks) in various power states
system.ruby.network.routers11.sw_input_arbiter_activity        10544                      
system.ruby.network.routers11.sw_output_arbiter_activity        10539                      
system.ruby.network.routers12.buffer_reads        21669                      
system.ruby.network.routers12.buffer_writes        21669                      
system.ruby.network.routers12.crossbar_activity        21669                      
system.ruby.network.routers12.pwrStateResidencyTicks::UNDEFINED    508480000                       # Cumulative time (in ticks) in various power states
system.ruby.network.routers12.sw_input_arbiter_activity        21671                      
system.ruby.network.routers12.sw_output_arbiter_activity        21669                      
system.ruby.network.routers13.buffer_reads        17520                      
system.ruby.network.routers13.buffer_writes        17520                      
system.ruby.network.routers13.crossbar_activity        17520                      
system.ruby.network.routers13.pwrStateResidencyTicks::UNDEFINED    508480000                       # Cumulative time (in ticks) in various power states
system.ruby.network.routers13.sw_input_arbiter_activity        17528                      
system.ruby.network.routers13.sw_output_arbiter_activity        17520                      
system.ruby.network.routers14.buffer_reads        14638                      
system.ruby.network.routers14.buffer_writes        14638                      
system.ruby.network.routers14.crossbar_activity        14638                      
system.ruby.network.routers14.pwrStateResidencyTicks::UNDEFINED    508480000                       # Cumulative time (in ticks) in various power states
system.ruby.network.routers14.sw_input_arbiter_activity        14649                      
system.ruby.network.routers14.sw_output_arbiter_activity        14638                      
system.ruby.network.routers15.buffer_reads        10796                      
system.ruby.network.routers15.buffer_writes        10796                      
system.ruby.network.routers15.crossbar_activity        10796                      
system.ruby.network.routers15.pwrStateResidencyTicks::UNDEFINED    508480000                       # Cumulative time (in ticks) in various power states
system.ruby.network.routers15.sw_input_arbiter_activity        10801                      
system.ruby.network.routers15.sw_output_arbiter_activity        10796                      
system.ruby.outstanding_req_hist_seqr::bucket_size            1                      
system.ruby.outstanding_req_hist_seqr::max_bucket            9                      
system.ruby.outstanding_req_hist_seqr::samples       269944                      
system.ruby.outstanding_req_hist_seqr::mean            1                      
system.ruby.outstanding_req_hist_seqr::gmean            1                      
system.ruby.outstanding_req_hist_seqr    |           0      0.00%      0.00% |      269944    100.00%    100.00% |           0      0.00%    100.00% |           0      0.00%    100.00% |           0      0.00%    100.00% |           0      0.00%    100.00% |           0      0.00%    100.00% |           0      0.00%    100.00% |           0      0.00%    100.00% |           0      0.00%    100.00%
system.ruby.outstanding_req_hist_seqr::total       269944                      
system.ruby.pwrStateResidencyTicks::UNDEFINED    508480000                       # Cumulative time (in ticks) in various power states
system.sys_port_proxy.pwrStateResidencyTicks::UNDEFINED    508480000                       # Cumulative time (in ticks) in various power states
system.voltage_domain.voltage                       1                       # Voltage in Volts

---------- End Simulation Statistics   ----------
