
---------- Begin Simulation Statistics ----------
final_tick                                  852202500                       # Number of ticks from beginning of simulation (restored from checkpoints and never reset)
host_inst_rate                                  24523                       # Simulator instruction rate (inst/s)
host_mem_usage                                5158316                       # Number of bytes of host memory used
host_op_rate                                    24604                       # Simulator op (including micro ops) rate (op/s)
host_seconds                                     4.65                       # Real time elapsed on the host
host_tick_rate                              183126809                       # Simulator tick rate (ticks/s)
sim_freq                                 1000000000000                       # Frequency of simulated ticks
sim_insts                                      114113                       # Number of instructions simulated
sim_ops                                        114495                       # Number of ops (including micro ops) simulated
sim_seconds                                  0.000852                       # Number of seconds simulated
sim_ticks                                   852202500                       # Number of ticks simulated
system.clk_domain.clock                          1000                       # Clock period in ticks
system.cpu00.Branches                           22339                       # Number of branches fetched
system.cpu00.committedInsts                    100000                       # Number of instructions committed
system.cpu00.committedOps                      100293                       # Number of ops (including micro ops) committed
system.cpu00.dtb.accesses                           0                       # DTB accesses
system.cpu00.dtb.hits                               0                       # DTB hits
system.cpu00.dtb.misses                             0                       # DTB misses
system.cpu00.dtb.pwrStateResidencyTicks::UNDEFINED    852202500                       # Cumulative time (in ticks) in various power states
system.cpu00.dtb.read_accesses                      0                       # DTB read accesses
system.cpu00.dtb.read_hits                          0                       # DTB read hits
system.cpu00.dtb.read_misses                        0                       # DTB read misses
system.cpu00.dtb.write_accesses                     0                       # DTB write accesses
system.cpu00.dtb.write_hits                         0                       # DTB write hits
system.cpu00.dtb.write_misses                       0                       # DTB write misses
system.cpu00.idle_fraction                   0.002531                       # Percentage of idle cycles
system.cpu00.itb.accesses                           0                       # DTB accesses
system.cpu00.itb.hits                               0                       # DTB hits
system.cpu00.itb.misses                             0                       # DTB misses
system.cpu00.itb.pwrStateResidencyTicks::UNDEFINED    852202500                       # Cumulative time (in ticks) in various power states
system.cpu00.itb.read_accesses                      0                       # DTB read accesses
system.cpu00.itb.read_hits                          0                       # DTB read hits
system.cpu00.itb.read_misses                        0                       # DTB read misses
system.cpu00.itb.write_accesses                     0                       # DTB write accesses
system.cpu00.itb.write_hits                         0                       # DTB write hits
system.cpu00.itb.write_misses                       0                       # DTB write misses
system.cpu00.not_idle_fraction               0.997469                       # Percentage of non-idle cycles
system.cpu00.numCycles                        1704405                       # number of cpu cycles simulated
system.cpu00.numPwrStateTransitions                 2                       # Number of power state transitions
system.cpu00.numWorkItemsCompleted                  0                       # number of work items this cpu completed
system.cpu00.numWorkItemsStarted                    0                       # number of work items this cpu started
system.cpu00.num_busy_cycles             1700092.000005                       # Number of busy cycles
system.cpu00.num_conditional_control_insts        15917                       # number of instructions that are conditional controls
system.cpu00.num_fp_alu_accesses                   12                       # Number of float alu accesses
system.cpu00.num_fp_insts                          12                       # number of float instructions
system.cpu00.num_fp_register_reads                 12                       # number of times the floating registers were read
system.cpu00.num_fp_register_writes                 0                       # number of times the floating registers were written
system.cpu00.num_func_calls                      6422                       # number of times a function call or return occured
system.cpu00.num_idle_cycles              4312.999995                       # Number of idle cycles
system.cpu00.num_int_alu_accesses               98833                       # Number of integer alu accesses
system.cpu00.num_int_insts                      98833                       # number of integer instructions
system.cpu00.num_int_register_reads            120831                       # number of times the integer registers were read
system.cpu00.num_int_register_writes            64478                       # number of times the integer registers were written
system.cpu00.num_load_insts                     20292                       # Number of load instructions
system.cpu00.num_mem_refs                       36561                       # number of memory refs
system.cpu00.num_store_insts                    16269                       # Number of store instructions
system.cpu00.num_vec_alu_accesses                   0                       # Number of vector alu accesses
system.cpu00.num_vec_insts                          0                       # number of vector instructions
system.cpu00.num_vec_register_reads                 0                       # number of times the vector registers were read
system.cpu00.num_vec_register_writes                0                       # number of times the vector registers were written
system.cpu00.op_class::No_OpClass                 859      0.86%      0.86% # Class of executed instruction
system.cpu00.op_class::IntAlu                   62909     62.68%     63.54% # Class of executed instruction
system.cpu00.op_class::IntMult                     30      0.03%     63.57% # Class of executed instruction
system.cpu00.op_class::IntDiv                       6      0.01%     63.57% # Class of executed instruction
system.cpu00.op_class::FloatAdd                     0      0.00%     63.57% # Class of executed instruction
system.cpu00.op_class::FloatCmp                     0      0.00%     63.57% # Class of executed instruction
system.cpu00.op_class::FloatCvt                     0      0.00%     63.57% # Class of executed instruction
system.cpu00.op_class::FloatMult                    0      0.00%     63.57% # Class of executed instruction
system.cpu00.op_class::FloatMultAcc                 0      0.00%     63.57% # Class of executed instruction
system.cpu00.op_class::FloatDiv                     0      0.00%     63.57% # Class of executed instruction
system.cpu00.op_class::FloatMisc                    0      0.00%     63.57% # Class of executed instruction
system.cpu00.op_class::FloatSqrt                    0      0.00%     63.57% # Class of executed instruction
system.cpu00.op_class::SimdAdd                      0      0.00%     63.57% # Class of executed instruction
system.cpu00.op_class::SimdAddAcc                   0      0.00%     63.57% # Class of executed instruction
system.cpu00.op_class::SimdAlu                      0      0.00%     63.57% # Class of executed instruction
system.cpu00.op_class::SimdCmp                      0      0.00%     63.57% # Class of executed instruction
system.cpu00.op_class::SimdCvt                      0      0.00%     63.57% # Class of executed instruction
system.cpu00.op_class::SimdMisc                     0      0.00%     63.57% # Class of executed instruction
system.cpu00.op_class::SimdMult                     0      0.00%     63.57% # Class of executed instruction
system.cpu00.op_class::SimdMultAcc                  0      0.00%     63.57% # Class of executed instruction
system.cpu00.op_class::SimdShift                    0      0.00%     63.57% # Class of executed instruction
system.cpu00.op_class::SimdShiftAcc                 0      0.00%     63.57% # Class of executed instruction
system.cpu00.op_class::SimdSqrt                     0      0.00%     63.57% # Class of executed instruction
system.cpu00.op_class::SimdFloatAdd                 0      0.00%     63.57% # Class of executed instruction
system.cpu00.op_class::SimdFloatAlu                 0      0.00%     63.57% # Class of executed instruction
system.cpu00.op_class::SimdFloatCmp                 0      0.00%     63.57% # Class of executed instruction
system.cpu00.op_class::SimdFloatCvt                 0      0.00%     63.57% # Class of executed instruction
system.cpu00.op_class::SimdFloatDiv                 0      0.00%     63.57% # Class of executed instruction
system.cpu00.op_class::SimdFloatMisc                0      0.00%     63.57% # Class of executed instruction
system.cpu00.op_class::SimdFloatMult                0      0.00%     63.57% # Class of executed instruction
system.cpu00.op_class::SimdFloatMultAcc             0      0.00%     63.57% # Class of executed instruction
system.cpu00.op_class::SimdFloatSqrt                0      0.00%     63.57% # Class of executed instruction
system.cpu00.op_class::SimdAes                      0      0.00%     63.57% # Class of executed instruction
system.cpu00.op_class::SimdAesMix                   0      0.00%     63.57% # Class of executed instruction
system.cpu00.op_class::SimdSha1Hash                 0      0.00%     63.57% # Class of executed instruction
system.cpu00.op_class::SimdSha1Hash2                0      0.00%     63.57% # Class of executed instruction
system.cpu00.op_class::SimdSha256Hash               0      0.00%     63.57% # Class of executed instruction
system.cpu00.op_class::SimdSha256Hash2              0      0.00%     63.57% # Class of executed instruction
system.cpu00.op_class::SimdShaSigma2                0      0.00%     63.57% # Class of executed instruction
system.cpu00.op_class::SimdShaSigma3                0      0.00%     63.57% # Class of executed instruction
system.cpu00.op_class::MemRead                  20577     20.50%     84.07% # Class of executed instruction
system.cpu00.op_class::MemWrite                 15972     15.91%     99.99% # Class of executed instruction
system.cpu00.op_class::FloatMemRead                 0      0.00%     99.99% # Class of executed instruction
system.cpu00.op_class::FloatMemWrite               12      0.01%    100.00% # Class of executed instruction
system.cpu00.op_class::IprAccess                    0      0.00%    100.00% # Class of executed instruction
system.cpu00.op_class::InstPrefetch                 0      0.00%    100.00% # Class of executed instruction
system.cpu00.op_class::total                   100365                       # Class of executed instruction
system.cpu00.pwrStateClkGateDist::samples            1                       # Distribution of time spent in the clock gated state
system.cpu00.pwrStateClkGateDist::mean        2156500                       # Distribution of time spent in the clock gated state
system.cpu00.pwrStateClkGateDist::1000-5e+10            1    100.00%    100.00% # Distribution of time spent in the clock gated state
system.cpu00.pwrStateClkGateDist::min_value      2156500                       # Distribution of time spent in the clock gated state
system.cpu00.pwrStateClkGateDist::max_value      2156500                       # Distribution of time spent in the clock gated state
system.cpu00.pwrStateClkGateDist::total             1                       # Distribution of time spent in the clock gated state
system.cpu00.pwrStateResidencyTicks::ON     850046000                       # Cumulative time (in ticks) in various power states
system.cpu00.pwrStateResidencyTicks::CLK_GATED      2156500                       # Cumulative time (in ticks) in various power states
system.cpu00.workload.numSyscalls                  71                       # Number of system calls
system.cpu01.Branches                             175                       # Number of branches fetched
system.cpu01.committedInsts                       900                       # Number of instructions committed
system.cpu01.committedOps                         906                       # Number of ops (including micro ops) committed
system.cpu01.dtb.accesses                           0                       # DTB accesses
system.cpu01.dtb.hits                               0                       # DTB hits
system.cpu01.dtb.misses                             0                       # DTB misses
system.cpu01.dtb.pwrStateResidencyTicks::UNDEFINED    852202500                       # Cumulative time (in ticks) in various power states
system.cpu01.dtb.read_accesses                      0                       # DTB read accesses
system.cpu01.dtb.read_hits                          0                       # DTB read hits
system.cpu01.dtb.read_misses                        0                       # DTB read misses
system.cpu01.dtb.write_accesses                     0                       # DTB write accesses
system.cpu01.dtb.write_hits                         0                       # DTB write hits
system.cpu01.dtb.write_misses                       0                       # DTB write misses
system.cpu01.idle_fraction                   0.980909                       # Percentage of idle cycles
system.cpu01.itb.accesses                           0                       # DTB accesses
system.cpu01.itb.hits                               0                       # DTB hits
system.cpu01.itb.misses                             0                       # DTB misses
system.cpu01.itb.pwrStateResidencyTicks::UNDEFINED    852202500                       # Cumulative time (in ticks) in various power states
system.cpu01.itb.read_accesses                      0                       # DTB read accesses
system.cpu01.itb.read_hits                          0                       # DTB read hits
system.cpu01.itb.read_misses                        0                       # DTB read misses
system.cpu01.itb.write_accesses                     0                       # DTB write accesses
system.cpu01.itb.write_hits                         0                       # DTB write hits
system.cpu01.itb.write_misses                       0                       # DTB write misses
system.cpu01.not_idle_fraction               0.019091                       # Percentage of non-idle cycles
system.cpu01.numCycles                        1704167                       # number of cpu cycles simulated
system.cpu01.numPwrStateTransitions                 2                       # Number of power state transitions
system.cpu01.numWorkItemsCompleted                  0                       # number of work items this cpu completed
system.cpu01.numWorkItemsStarted                    0                       # number of work items this cpu started
system.cpu01.num_busy_cycles             32533.458415                       # Number of busy cycles
system.cpu01.num_conditional_control_insts           92                       # number of instructions that are conditional controls
system.cpu01.num_fp_alu_accesses                   12                       # Number of float alu accesses
system.cpu01.num_fp_insts                          12                       # number of float instructions
system.cpu01.num_fp_register_reads                 12                       # number of times the floating registers were read
system.cpu01.num_fp_register_writes                 0                       # number of times the floating registers were written
system.cpu01.num_func_calls                        83                       # number of times a function call or return occured
system.cpu01.num_idle_cycles             1671633.541585                       # Number of idle cycles
system.cpu01.num_int_alu_accesses                 887                       # Number of integer alu accesses
system.cpu01.num_int_insts                        887                       # number of integer instructions
system.cpu01.num_int_register_reads              1037                       # number of times the integer registers were read
system.cpu01.num_int_register_writes              610                       # number of times the integer registers were written
system.cpu01.num_load_insts                       198                       # Number of load instructions
system.cpu01.num_mem_refs                         357                       # number of memory refs
system.cpu01.num_store_insts                      159                       # Number of store instructions
system.cpu01.num_vec_alu_accesses                   0                       # Number of vector alu accesses
system.cpu01.num_vec_insts                          0                       # number of vector instructions
system.cpu01.num_vec_register_reads                 0                       # number of times the vector registers were read
system.cpu01.num_vec_register_writes                0                       # number of times the vector registers were written
system.cpu01.op_class::No_OpClass                  10      1.10%      1.10% # Class of executed instruction
system.cpu01.op_class::IntAlu                     538     59.25%     60.35% # Class of executed instruction
system.cpu01.op_class::IntMult                      1      0.11%     60.46% # Class of executed instruction
system.cpu01.op_class::IntDiv                       2      0.22%     60.68% # Class of executed instruction
system.cpu01.op_class::FloatAdd                     0      0.00%     60.68% # Class of executed instruction
system.cpu01.op_class::FloatCmp                     0      0.00%     60.68% # Class of executed instruction
system.cpu01.op_class::FloatCvt                     0      0.00%     60.68% # Class of executed instruction
system.cpu01.op_class::FloatMult                    0      0.00%     60.68% # Class of executed instruction
system.cpu01.op_class::FloatMultAcc                 0      0.00%     60.68% # Class of executed instruction
system.cpu01.op_class::FloatDiv                     0      0.00%     60.68% # Class of executed instruction
system.cpu01.op_class::FloatMisc                    0      0.00%     60.68% # Class of executed instruction
system.cpu01.op_class::FloatSqrt                    0      0.00%     60.68% # Class of executed instruction
system.cpu01.op_class::SimdAdd                      0      0.00%     60.68% # Class of executed instruction
system.cpu01.op_class::SimdAddAcc                   0      0.00%     60.68% # Class of executed instruction
system.cpu01.op_class::SimdAlu                      0      0.00%     60.68% # Class of executed instruction
system.cpu01.op_class::SimdCmp                      0      0.00%     60.68% # Class of executed instruction
system.cpu01.op_class::SimdCvt                      0      0.00%     60.68% # Class of executed instruction
system.cpu01.op_class::SimdMisc                     0      0.00%     60.68% # Class of executed instruction
system.cpu01.op_class::SimdMult                     0      0.00%     60.68% # Class of executed instruction
system.cpu01.op_class::SimdMultAcc                  0      0.00%     60.68% # Class of executed instruction
system.cpu01.op_class::SimdShift                    0      0.00%     60.68% # Class of executed instruction
system.cpu01.op_class::SimdShiftAcc                 0      0.00%     60.68% # Class of executed instruction
system.cpu01.op_class::SimdSqrt                     0      0.00%     60.68% # Class of executed instruction
system.cpu01.op_class::SimdFloatAdd                 0      0.00%     60.68% # Class of executed instruction
system.cpu01.op_class::SimdFloatAlu                 0      0.00%     60.68% # Class of executed instruction
system.cpu01.op_class::SimdFloatCmp                 0      0.00%     60.68% # Class of executed instruction
system.cpu01.op_class::SimdFloatCvt                 0      0.00%     60.68% # Class of executed instruction
system.cpu01.op_class::SimdFloatDiv                 0      0.00%     60.68% # Class of executed instruction
system.cpu01.op_class::SimdFloatMisc                0      0.00%     60.68% # Class of executed instruction
system.cpu01.op_class::SimdFloatMult                0      0.00%     60.68% # Class of executed instruction
system.cpu01.op_class::SimdFloatMultAcc             0      0.00%     60.68% # Class of executed instruction
system.cpu01.op_class::SimdFloatSqrt                0      0.00%     60.68% # Class of executed instruction
system.cpu01.op_class::SimdAes                      0      0.00%     60.68% # Class of executed instruction
system.cpu01.op_class::SimdAesMix                   0      0.00%     60.68% # Class of executed instruction
system.cpu01.op_class::SimdSha1Hash                 0      0.00%     60.68% # Class of executed instruction
system.cpu01.op_class::SimdSha1Hash2                0      0.00%     60.68% # Class of executed instruction
system.cpu01.op_class::SimdSha256Hash               0      0.00%     60.68% # Class of executed instruction
system.cpu01.op_class::SimdSha256Hash2              0      0.00%     60.68% # Class of executed instruction
system.cpu01.op_class::SimdShaSigma2                0      0.00%     60.68% # Class of executed instruction
system.cpu01.op_class::SimdShaSigma3                0      0.00%     60.68% # Class of executed instruction
system.cpu01.op_class::MemRead                    202     22.25%     82.93% # Class of executed instruction
system.cpu01.op_class::MemWrite                   143     15.75%     98.68% # Class of executed instruction
system.cpu01.op_class::FloatMemRead                 0      0.00%     98.68% # Class of executed instruction
system.cpu01.op_class::FloatMemWrite               12      1.32%    100.00% # Class of executed instruction
system.cpu01.op_class::IprAccess                    0      0.00%    100.00% # Class of executed instruction
system.cpu01.op_class::InstPrefetch                 0      0.00%    100.00% # Class of executed instruction
system.cpu01.op_class::total                      908                       # Class of executed instruction
system.cpu01.pwrStateClkGateDist::samples            1                       # Distribution of time spent in the clock gated state
system.cpu01.pwrStateClkGateDist::mean      186988000                       # Distribution of time spent in the clock gated state
system.cpu01.pwrStateClkGateDist::1000-5e+10            1    100.00%    100.00% # Distribution of time spent in the clock gated state
system.cpu01.pwrStateClkGateDist::min_value    186988000                       # Distribution of time spent in the clock gated state
system.cpu01.pwrStateClkGateDist::max_value    186988000                       # Distribution of time spent in the clock gated state
system.cpu01.pwrStateClkGateDist::total             1                       # Distribution of time spent in the clock gated state
system.cpu01.pwrStateResidencyTicks::ON     665214500                       # Cumulative time (in ticks) in various power states
system.cpu01.pwrStateResidencyTicks::CLK_GATED    186988000                       # Cumulative time (in ticks) in various power states
system.cpu02.Branches                             215                       # Number of branches fetched
system.cpu02.committedInsts                      1100                       # Number of instructions committed
system.cpu02.committedOps                        1106                       # Number of ops (including micro ops) committed
system.cpu02.dtb.accesses                           0                       # DTB accesses
system.cpu02.dtb.hits                               0                       # DTB hits
system.cpu02.dtb.misses                             0                       # DTB misses
system.cpu02.dtb.pwrStateResidencyTicks::UNDEFINED    852202500                       # Cumulative time (in ticks) in various power states
system.cpu02.dtb.read_accesses                      0                       # DTB read accesses
system.cpu02.dtb.read_hits                          0                       # DTB read hits
system.cpu02.dtb.read_misses                        0                       # DTB read misses
system.cpu02.dtb.write_accesses                     0                       # DTB write accesses
system.cpu02.dtb.write_hits                         0                       # DTB write hits
system.cpu02.dtb.write_misses                       0                       # DTB write misses
system.cpu02.idle_fraction                   0.983343                       # Percentage of idle cycles
system.cpu02.itb.accesses                           0                       # DTB accesses
system.cpu02.itb.hits                               0                       # DTB hits
system.cpu02.itb.misses                             0                       # DTB misses
system.cpu02.itb.pwrStateResidencyTicks::UNDEFINED    852202500                       # Cumulative time (in ticks) in various power states
system.cpu02.itb.read_accesses                      0                       # DTB read accesses
system.cpu02.itb.read_hits                          0                       # DTB read hits
system.cpu02.itb.read_misses                        0                       # DTB read misses
system.cpu02.itb.write_accesses                     0                       # DTB write accesses
system.cpu02.itb.write_hits                         0                       # DTB write hits
system.cpu02.itb.write_misses                       0                       # DTB write misses
system.cpu02.not_idle_fraction               0.016657                       # Percentage of non-idle cycles
system.cpu02.numCycles                        1704132                       # number of cpu cycles simulated
system.cpu02.numPwrStateTransitions                 2                       # Number of power state transitions
system.cpu02.numWorkItemsCompleted                  0                       # number of work items this cpu completed
system.cpu02.numWorkItemsStarted                    0                       # number of work items this cpu started
system.cpu02.num_busy_cycles             28385.454649                       # Number of busy cycles
system.cpu02.num_conditional_control_insts          113                       # number of instructions that are conditional controls
system.cpu02.num_fp_alu_accesses                   12                       # Number of float alu accesses
system.cpu02.num_fp_insts                          12                       # number of float instructions
system.cpu02.num_fp_register_reads                 12                       # number of times the floating registers were read
system.cpu02.num_fp_register_writes                 0                       # number of times the floating registers were written
system.cpu02.num_func_calls                       102                       # number of times a function call or return occured
system.cpu02.num_idle_cycles             1675746.545351                       # Number of idle cycles
system.cpu02.num_int_alu_accesses                1082                       # Number of integer alu accesses
system.cpu02.num_int_insts                       1082                       # number of integer instructions
system.cpu02.num_int_register_reads              1264                       # number of times the integer registers were read
system.cpu02.num_int_register_writes              756                       # number of times the integer registers were written
system.cpu02.num_load_insts                       247                       # Number of load instructions
system.cpu02.num_mem_refs                         426                       # number of memory refs
system.cpu02.num_store_insts                      179                       # Number of store instructions
system.cpu02.num_vec_alu_accesses                   0                       # Number of vector alu accesses
system.cpu02.num_vec_insts                          0                       # number of vector instructions
system.cpu02.num_vec_register_reads                 0                       # number of times the vector registers were read
system.cpu02.num_vec_register_writes                0                       # number of times the vector registers were written
system.cpu02.op_class::No_OpClass                  10      0.90%      0.90% # Class of executed instruction
system.cpu02.op_class::IntAlu                     669     60.38%     61.28% # Class of executed instruction
system.cpu02.op_class::IntMult                      1      0.09%     61.37% # Class of executed instruction
system.cpu02.op_class::IntDiv                       2      0.18%     61.55% # Class of executed instruction
system.cpu02.op_class::FloatAdd                     0      0.00%     61.55% # Class of executed instruction
system.cpu02.op_class::FloatCmp                     0      0.00%     61.55% # Class of executed instruction
system.cpu02.op_class::FloatCvt                     0      0.00%     61.55% # Class of executed instruction
system.cpu02.op_class::FloatMult                    0      0.00%     61.55% # Class of executed instruction
system.cpu02.op_class::FloatMultAcc                 0      0.00%     61.55% # Class of executed instruction
system.cpu02.op_class::FloatDiv                     0      0.00%     61.55% # Class of executed instruction
system.cpu02.op_class::FloatMisc                    0      0.00%     61.55% # Class of executed instruction
system.cpu02.op_class::FloatSqrt                    0      0.00%     61.55% # Class of executed instruction
system.cpu02.op_class::SimdAdd                      0      0.00%     61.55% # Class of executed instruction
system.cpu02.op_class::SimdAddAcc                   0      0.00%     61.55% # Class of executed instruction
system.cpu02.op_class::SimdAlu                      0      0.00%     61.55% # Class of executed instruction
system.cpu02.op_class::SimdCmp                      0      0.00%     61.55% # Class of executed instruction
system.cpu02.op_class::SimdCvt                      0      0.00%     61.55% # Class of executed instruction
system.cpu02.op_class::SimdMisc                     0      0.00%     61.55% # Class of executed instruction
system.cpu02.op_class::SimdMult                     0      0.00%     61.55% # Class of executed instruction
system.cpu02.op_class::SimdMultAcc                  0      0.00%     61.55% # Class of executed instruction
system.cpu02.op_class::SimdShift                    0      0.00%     61.55% # Class of executed instruction
system.cpu02.op_class::SimdShiftAcc                 0      0.00%     61.55% # Class of executed instruction
system.cpu02.op_class::SimdSqrt                     0      0.00%     61.55% # Class of executed instruction
system.cpu02.op_class::SimdFloatAdd                 0      0.00%     61.55% # Class of executed instruction
system.cpu02.op_class::SimdFloatAlu                 0      0.00%     61.55% # Class of executed instruction
system.cpu02.op_class::SimdFloatCmp                 0      0.00%     61.55% # Class of executed instruction
system.cpu02.op_class::SimdFloatCvt                 0      0.00%     61.55% # Class of executed instruction
system.cpu02.op_class::SimdFloatDiv                 0      0.00%     61.55% # Class of executed instruction
system.cpu02.op_class::SimdFloatMisc                0      0.00%     61.55% # Class of executed instruction
system.cpu02.op_class::SimdFloatMult                0      0.00%     61.55% # Class of executed instruction
system.cpu02.op_class::SimdFloatMultAcc             0      0.00%     61.55% # Class of executed instruction
system.cpu02.op_class::SimdFloatSqrt                0      0.00%     61.55% # Class of executed instruction
system.cpu02.op_class::SimdAes                      0      0.00%     61.55% # Class of executed instruction
system.cpu02.op_class::SimdAesMix                   0      0.00%     61.55% # Class of executed instruction
system.cpu02.op_class::SimdSha1Hash                 0      0.00%     61.55% # Class of executed instruction
system.cpu02.op_class::SimdSha1Hash2                0      0.00%     61.55% # Class of executed instruction
system.cpu02.op_class::SimdSha256Hash               0      0.00%     61.55% # Class of executed instruction
system.cpu02.op_class::SimdSha256Hash2              0      0.00%     61.55% # Class of executed instruction
system.cpu02.op_class::SimdShaSigma2                0      0.00%     61.55% # Class of executed instruction
system.cpu02.op_class::SimdShaSigma3                0      0.00%     61.55% # Class of executed instruction
system.cpu02.op_class::MemRead                    251     22.65%     84.21% # Class of executed instruction
system.cpu02.op_class::MemWrite                   163     14.71%     98.92% # Class of executed instruction
system.cpu02.op_class::FloatMemRead                 0      0.00%     98.92% # Class of executed instruction
system.cpu02.op_class::FloatMemWrite               12      1.08%    100.00% # Class of executed instruction
system.cpu02.op_class::IprAccess                    0      0.00%    100.00% # Class of executed instruction
system.cpu02.op_class::InstPrefetch                 0      0.00%    100.00% # Class of executed instruction
system.cpu02.op_class::total                     1108                       # Class of executed instruction
system.cpu02.pwrStateClkGateDist::samples            1                       # Distribution of time spent in the clock gated state
system.cpu02.pwrStateClkGateDist::mean      175667000                       # Distribution of time spent in the clock gated state
system.cpu02.pwrStateClkGateDist::1000-5e+10            1    100.00%    100.00% # Distribution of time spent in the clock gated state
system.cpu02.pwrStateClkGateDist::min_value    175667000                       # Distribution of time spent in the clock gated state
system.cpu02.pwrStateClkGateDist::max_value    175667000                       # Distribution of time spent in the clock gated state
system.cpu02.pwrStateClkGateDist::total             1                       # Distribution of time spent in the clock gated state
system.cpu02.pwrStateResidencyTicks::ON     676535500                       # Cumulative time (in ticks) in various power states
system.cpu02.pwrStateResidencyTicks::CLK_GATED    175667000                       # Cumulative time (in ticks) in various power states
system.cpu03.Branches                             193                       # Number of branches fetched
system.cpu03.committedInsts                       981                       # Number of instructions committed
system.cpu03.committedOps                         987                       # Number of ops (including micro ops) committed
system.cpu03.dtb.accesses                           0                       # DTB accesses
system.cpu03.dtb.hits                               0                       # DTB hits
system.cpu03.dtb.misses                             0                       # DTB misses
system.cpu03.dtb.pwrStateResidencyTicks::UNDEFINED    852202500                       # Cumulative time (in ticks) in various power states
system.cpu03.dtb.read_accesses                      0                       # DTB read accesses
system.cpu03.dtb.read_hits                          0                       # DTB read hits
system.cpu03.dtb.read_misses                        0                       # DTB read misses
system.cpu03.dtb.write_accesses                     0                       # DTB write accesses
system.cpu03.dtb.write_hits                         0                       # DTB write hits
system.cpu03.dtb.write_misses                       0                       # DTB write misses
system.cpu03.idle_fraction                   0.982992                       # Percentage of idle cycles
system.cpu03.itb.accesses                           0                       # DTB accesses
system.cpu03.itb.hits                               0                       # DTB hits
system.cpu03.itb.misses                             0                       # DTB misses
system.cpu03.itb.pwrStateResidencyTicks::UNDEFINED    852202500                       # Cumulative time (in ticks) in various power states
system.cpu03.itb.read_accesses                      0                       # DTB read accesses
system.cpu03.itb.read_hits                          0                       # DTB read hits
system.cpu03.itb.read_misses                        0                       # DTB read misses
system.cpu03.itb.write_accesses                     0                       # DTB write accesses
system.cpu03.itb.write_hits                         0                       # DTB write hits
system.cpu03.itb.write_misses                       0                       # DTB write misses
system.cpu03.not_idle_fraction               0.017008                       # Percentage of non-idle cycles
system.cpu03.numCycles                        1704405                       # number of cpu cycles simulated
system.cpu03.numPwrStateTransitions                 2                       # Number of power state transitions
system.cpu03.numWorkItemsCompleted                  0                       # number of work items this cpu completed
system.cpu03.numWorkItemsStarted                    0                       # number of work items this cpu started
system.cpu03.num_busy_cycles             28989.001966                       # Number of busy cycles
system.cpu03.num_conditional_control_insts          100                       # number of instructions that are conditional controls
system.cpu03.num_fp_alu_accesses                   12                       # Number of float alu accesses
system.cpu03.num_fp_insts                          12                       # number of float instructions
system.cpu03.num_fp_register_reads                 12                       # number of times the floating registers were read
system.cpu03.num_fp_register_writes                 0                       # number of times the floating registers were written
system.cpu03.num_func_calls                        93                       # number of times a function call or return occured
system.cpu03.num_idle_cycles             1675415.998034                       # Number of idle cycles
system.cpu03.num_int_alu_accesses                 963                       # Number of integer alu accesses
system.cpu03.num_int_insts                        963                       # number of integer instructions
system.cpu03.num_int_register_reads              1129                       # number of times the integer registers were read
system.cpu03.num_int_register_writes              667                       # number of times the integer registers were written
system.cpu03.num_load_insts                       218                       # Number of load instructions
system.cpu03.num_mem_refs                         385                       # number of memory refs
system.cpu03.num_store_insts                      167                       # Number of store instructions
system.cpu03.num_vec_alu_accesses                   0                       # Number of vector alu accesses
system.cpu03.num_vec_insts                          0                       # number of vector instructions
system.cpu03.num_vec_register_reads                 0                       # number of times the vector registers were read
system.cpu03.num_vec_register_writes                0                       # number of times the vector registers were written
system.cpu03.op_class::No_OpClass                  10      1.01%      1.01% # Class of executed instruction
system.cpu03.op_class::IntAlu                     591     59.76%     60.77% # Class of executed instruction
system.cpu03.op_class::IntMult                      1      0.10%     60.87% # Class of executed instruction
system.cpu03.op_class::IntDiv                       2      0.20%     61.07% # Class of executed instruction
system.cpu03.op_class::FloatAdd                     0      0.00%     61.07% # Class of executed instruction
system.cpu03.op_class::FloatCmp                     0      0.00%     61.07% # Class of executed instruction
system.cpu03.op_class::FloatCvt                     0      0.00%     61.07% # Class of executed instruction
system.cpu03.op_class::FloatMult                    0      0.00%     61.07% # Class of executed instruction
system.cpu03.op_class::FloatMultAcc                 0      0.00%     61.07% # Class of executed instruction
system.cpu03.op_class::FloatDiv                     0      0.00%     61.07% # Class of executed instruction
system.cpu03.op_class::FloatMisc                    0      0.00%     61.07% # Class of executed instruction
system.cpu03.op_class::FloatSqrt                    0      0.00%     61.07% # Class of executed instruction
system.cpu03.op_class::SimdAdd                      0      0.00%     61.07% # Class of executed instruction
system.cpu03.op_class::SimdAddAcc                   0      0.00%     61.07% # Class of executed instruction
system.cpu03.op_class::SimdAlu                      0      0.00%     61.07% # Class of executed instruction
system.cpu03.op_class::SimdCmp                      0      0.00%     61.07% # Class of executed instruction
system.cpu03.op_class::SimdCvt                      0      0.00%     61.07% # Class of executed instruction
system.cpu03.op_class::SimdMisc                     0      0.00%     61.07% # Class of executed instruction
system.cpu03.op_class::SimdMult                     0      0.00%     61.07% # Class of executed instruction
system.cpu03.op_class::SimdMultAcc                  0      0.00%     61.07% # Class of executed instruction
system.cpu03.op_class::SimdShift                    0      0.00%     61.07% # Class of executed instruction
system.cpu03.op_class::SimdShiftAcc                 0      0.00%     61.07% # Class of executed instruction
system.cpu03.op_class::SimdSqrt                     0      0.00%     61.07% # Class of executed instruction
system.cpu03.op_class::SimdFloatAdd                 0      0.00%     61.07% # Class of executed instruction
system.cpu03.op_class::SimdFloatAlu                 0      0.00%     61.07% # Class of executed instruction
system.cpu03.op_class::SimdFloatCmp                 0      0.00%     61.07% # Class of executed instruction
system.cpu03.op_class::SimdFloatCvt                 0      0.00%     61.07% # Class of executed instruction
system.cpu03.op_class::SimdFloatDiv                 0      0.00%     61.07% # Class of executed instruction
system.cpu03.op_class::SimdFloatMisc                0      0.00%     61.07% # Class of executed instruction
system.cpu03.op_class::SimdFloatMult                0      0.00%     61.07% # Class of executed instruction
system.cpu03.op_class::SimdFloatMultAcc             0      0.00%     61.07% # Class of executed instruction
system.cpu03.op_class::SimdFloatSqrt                0      0.00%     61.07% # Class of executed instruction
system.cpu03.op_class::SimdAes                      0      0.00%     61.07% # Class of executed instruction
system.cpu03.op_class::SimdAesMix                   0      0.00%     61.07% # Class of executed instruction
system.cpu03.op_class::SimdSha1Hash                 0      0.00%     61.07% # Class of executed instruction
system.cpu03.op_class::SimdSha1Hash2                0      0.00%     61.07% # Class of executed instruction
system.cpu03.op_class::SimdSha256Hash               0      0.00%     61.07% # Class of executed instruction
system.cpu03.op_class::SimdSha256Hash2              0      0.00%     61.07% # Class of executed instruction
system.cpu03.op_class::SimdShaSigma2                0      0.00%     61.07% # Class of executed instruction
system.cpu03.op_class::SimdShaSigma3                0      0.00%     61.07% # Class of executed instruction
system.cpu03.op_class::MemRead                    222     22.45%     83.52% # Class of executed instruction
system.cpu03.op_class::MemWrite                   151     15.27%     98.79% # Class of executed instruction
system.cpu03.op_class::FloatMemRead                 0      0.00%     98.79% # Class of executed instruction
system.cpu03.op_class::FloatMemWrite               12      1.21%    100.00% # Class of executed instruction
system.cpu03.op_class::IprAccess                    0      0.00%    100.00% # Class of executed instruction
system.cpu03.op_class::InstPrefetch                 0      0.00%    100.00% # Class of executed instruction
system.cpu03.op_class::total                      989                       # Class of executed instruction
system.cpu03.pwrStateClkGateDist::samples            1                       # Distribution of time spent in the clock gated state
system.cpu03.pwrStateClkGateDist::mean      161531000                       # Distribution of time spent in the clock gated state
system.cpu03.pwrStateClkGateDist::1000-5e+10            1    100.00%    100.00% # Distribution of time spent in the clock gated state
system.cpu03.pwrStateClkGateDist::min_value    161531000                       # Distribution of time spent in the clock gated state
system.cpu03.pwrStateClkGateDist::max_value    161531000                       # Distribution of time spent in the clock gated state
system.cpu03.pwrStateClkGateDist::total             1                       # Distribution of time spent in the clock gated state
system.cpu03.pwrStateResidencyTicks::ON     690671500                       # Cumulative time (in ticks) in various power states
system.cpu03.pwrStateResidencyTicks::CLK_GATED    161531000                       # Cumulative time (in ticks) in various power states
system.cpu04.Branches                             169                       # Number of branches fetched
system.cpu04.committedInsts                       848                       # Number of instructions committed
system.cpu04.committedOps                         854                       # Number of ops (including micro ops) committed
system.cpu04.dtb.accesses                           0                       # DTB accesses
system.cpu04.dtb.hits                               0                       # DTB hits
system.cpu04.dtb.misses                             0                       # DTB misses
system.cpu04.dtb.pwrStateResidencyTicks::UNDEFINED    852202500                       # Cumulative time (in ticks) in various power states
system.cpu04.dtb.read_accesses                      0                       # DTB read accesses
system.cpu04.dtb.read_hits                          0                       # DTB read hits
system.cpu04.dtb.read_misses                        0                       # DTB read misses
system.cpu04.dtb.write_accesses                     0                       # DTB write accesses
system.cpu04.dtb.write_hits                         0                       # DTB write hits
system.cpu04.dtb.write_misses                       0                       # DTB write misses
system.cpu04.idle_fraction                   0.982970                       # Percentage of idle cycles
system.cpu04.itb.accesses                           0                       # DTB accesses
system.cpu04.itb.hits                               0                       # DTB hits
system.cpu04.itb.misses                             0                       # DTB misses
system.cpu04.itb.pwrStateResidencyTicks::UNDEFINED    852202500                       # Cumulative time (in ticks) in various power states
system.cpu04.itb.read_accesses                      0                       # DTB read accesses
system.cpu04.itb.read_hits                          0                       # DTB read hits
system.cpu04.itb.read_misses                        0                       # DTB read misses
system.cpu04.itb.write_accesses                     0                       # DTB write accesses
system.cpu04.itb.write_hits                         0                       # DTB write hits
system.cpu04.itb.write_misses                       0                       # DTB write misses
system.cpu04.not_idle_fraction               0.017030                       # Percentage of non-idle cycles
system.cpu04.numCycles                        1704392                       # number of cpu cycles simulated
system.cpu04.numPwrStateTransitions                 2                       # Number of power state transitions
system.cpu04.numWorkItemsCompleted                  0                       # number of work items this cpu completed
system.cpu04.numWorkItemsStarted                    0                       # number of work items this cpu started
system.cpu04.num_busy_cycles             29025.780576                       # Number of busy cycles
system.cpu04.num_conditional_control_insts           87                       # number of instructions that are conditional controls
system.cpu04.num_fp_alu_accesses                   12                       # Number of float alu accesses
system.cpu04.num_fp_insts                          12                       # number of float instructions
system.cpu04.num_fp_register_reads                 12                       # number of times the floating registers were read
system.cpu04.num_fp_register_writes                 0                       # number of times the floating registers were written
system.cpu04.num_func_calls                        82                       # number of times a function call or return occured
system.cpu04.num_idle_cycles             1675366.219424                       # Number of idle cycles
system.cpu04.num_int_alu_accesses                 832                       # Number of integer alu accesses
system.cpu04.num_int_insts                        832                       # number of integer instructions
system.cpu04.num_int_register_reads               979                       # number of times the integer registers were read
system.cpu04.num_int_register_writes              569                       # number of times the integer registers were written
system.cpu04.num_load_insts                       186                       # Number of load instructions
system.cpu04.num_mem_refs                         338                       # number of memory refs
system.cpu04.num_store_insts                      152                       # Number of store instructions
system.cpu04.num_vec_alu_accesses                   0                       # Number of vector alu accesses
system.cpu04.num_vec_insts                          0                       # number of vector instructions
system.cpu04.num_vec_register_reads                 0                       # number of times the vector registers were read
system.cpu04.num_vec_register_writes                0                       # number of times the vector registers were written
system.cpu04.op_class::No_OpClass                  10      1.17%      1.17% # Class of executed instruction
system.cpu04.op_class::IntAlu                     505     59.00%     60.16% # Class of executed instruction
system.cpu04.op_class::IntMult                      1      0.12%     60.28% # Class of executed instruction
system.cpu04.op_class::IntDiv                       2      0.23%     60.51% # Class of executed instruction
system.cpu04.op_class::FloatAdd                     0      0.00%     60.51% # Class of executed instruction
system.cpu04.op_class::FloatCmp                     0      0.00%     60.51% # Class of executed instruction
system.cpu04.op_class::FloatCvt                     0      0.00%     60.51% # Class of executed instruction
system.cpu04.op_class::FloatMult                    0      0.00%     60.51% # Class of executed instruction
system.cpu04.op_class::FloatMultAcc                 0      0.00%     60.51% # Class of executed instruction
system.cpu04.op_class::FloatDiv                     0      0.00%     60.51% # Class of executed instruction
system.cpu04.op_class::FloatMisc                    0      0.00%     60.51% # Class of executed instruction
system.cpu04.op_class::FloatSqrt                    0      0.00%     60.51% # Class of executed instruction
system.cpu04.op_class::SimdAdd                      0      0.00%     60.51% # Class of executed instruction
system.cpu04.op_class::SimdAddAcc                   0      0.00%     60.51% # Class of executed instruction
system.cpu04.op_class::SimdAlu                      0      0.00%     60.51% # Class of executed instruction
system.cpu04.op_class::SimdCmp                      0      0.00%     60.51% # Class of executed instruction
system.cpu04.op_class::SimdCvt                      0      0.00%     60.51% # Class of executed instruction
system.cpu04.op_class::SimdMisc                     0      0.00%     60.51% # Class of executed instruction
system.cpu04.op_class::SimdMult                     0      0.00%     60.51% # Class of executed instruction
system.cpu04.op_class::SimdMultAcc                  0      0.00%     60.51% # Class of executed instruction
system.cpu04.op_class::SimdShift                    0      0.00%     60.51% # Class of executed instruction
system.cpu04.op_class::SimdShiftAcc                 0      0.00%     60.51% # Class of executed instruction
system.cpu04.op_class::SimdSqrt                     0      0.00%     60.51% # Class of executed instruction
system.cpu04.op_class::SimdFloatAdd                 0      0.00%     60.51% # Class of executed instruction
system.cpu04.op_class::SimdFloatAlu                 0      0.00%     60.51% # Class of executed instruction
system.cpu04.op_class::SimdFloatCmp                 0      0.00%     60.51% # Class of executed instruction
system.cpu04.op_class::SimdFloatCvt                 0      0.00%     60.51% # Class of executed instruction
system.cpu04.op_class::SimdFloatDiv                 0      0.00%     60.51% # Class of executed instruction
system.cpu04.op_class::SimdFloatMisc                0      0.00%     60.51% # Class of executed instruction
system.cpu04.op_class::SimdFloatMult                0      0.00%     60.51% # Class of executed instruction
system.cpu04.op_class::SimdFloatMultAcc             0      0.00%     60.51% # Class of executed instruction
system.cpu04.op_class::SimdFloatSqrt                0      0.00%     60.51% # Class of executed instruction
system.cpu04.op_class::SimdAes                      0      0.00%     60.51% # Class of executed instruction
system.cpu04.op_class::SimdAesMix                   0      0.00%     60.51% # Class of executed instruction
system.cpu04.op_class::SimdSha1Hash                 0      0.00%     60.51% # Class of executed instruction
system.cpu04.op_class::SimdSha1Hash2                0      0.00%     60.51% # Class of executed instruction
system.cpu04.op_class::SimdSha256Hash               0      0.00%     60.51% # Class of executed instruction
system.cpu04.op_class::SimdSha256Hash2              0      0.00%     60.51% # Class of executed instruction
system.cpu04.op_class::SimdShaSigma2                0      0.00%     60.51% # Class of executed instruction
system.cpu04.op_class::SimdShaSigma3                0      0.00%     60.51% # Class of executed instruction
system.cpu04.op_class::MemRead                    190     22.20%     82.71% # Class of executed instruction
system.cpu04.op_class::MemWrite                   136     15.89%     98.60% # Class of executed instruction
system.cpu04.op_class::FloatMemRead                 0      0.00%     98.60% # Class of executed instruction
system.cpu04.op_class::FloatMemWrite               12      1.40%    100.00% # Class of executed instruction
system.cpu04.op_class::IprAccess                    0      0.00%    100.00% # Class of executed instruction
system.cpu04.op_class::InstPrefetch                 0      0.00%    100.00% # Class of executed instruction
system.cpu04.op_class::total                      856                       # Class of executed instruction
system.cpu04.pwrStateClkGateDist::samples            1                       # Distribution of time spent in the clock gated state
system.cpu04.pwrStateClkGateDist::mean      147824000                       # Distribution of time spent in the clock gated state
system.cpu04.pwrStateClkGateDist::1000-5e+10            1    100.00%    100.00% # Distribution of time spent in the clock gated state
system.cpu04.pwrStateClkGateDist::min_value    147824000                       # Distribution of time spent in the clock gated state
system.cpu04.pwrStateClkGateDist::max_value    147824000                       # Distribution of time spent in the clock gated state
system.cpu04.pwrStateClkGateDist::total             1                       # Distribution of time spent in the clock gated state
system.cpu04.pwrStateResidencyTicks::ON     704378500                       # Cumulative time (in ticks) in various power states
system.cpu04.pwrStateResidencyTicks::CLK_GATED    147824000                       # Cumulative time (in ticks) in various power states
system.cpu05.Branches                             217                       # Number of branches fetched
system.cpu05.committedInsts                      1107                       # Number of instructions committed
system.cpu05.committedOps                        1113                       # Number of ops (including micro ops) committed
system.cpu05.dtb.accesses                           0                       # DTB accesses
system.cpu05.dtb.hits                               0                       # DTB hits
system.cpu05.dtb.misses                             0                       # DTB misses
system.cpu05.dtb.pwrStateResidencyTicks::UNDEFINED    852202500                       # Cumulative time (in ticks) in various power states
system.cpu05.dtb.read_accesses                      0                       # DTB read accesses
system.cpu05.dtb.read_hits                          0                       # DTB read hits
system.cpu05.dtb.read_misses                        0                       # DTB read misses
system.cpu05.dtb.write_accesses                     0                       # DTB write accesses
system.cpu05.dtb.write_hits                         0                       # DTB write hits
system.cpu05.dtb.write_misses                       0                       # DTB write misses
system.cpu05.idle_fraction                   0.983392                       # Percentage of idle cycles
system.cpu05.itb.accesses                           0                       # DTB accesses
system.cpu05.itb.hits                               0                       # DTB hits
system.cpu05.itb.misses                             0                       # DTB misses
system.cpu05.itb.pwrStateResidencyTicks::UNDEFINED    852202500                       # Cumulative time (in ticks) in various power states
system.cpu05.itb.read_accesses                      0                       # DTB read accesses
system.cpu05.itb.read_hits                          0                       # DTB read hits
system.cpu05.itb.read_misses                        0                       # DTB read misses
system.cpu05.itb.write_accesses                     0                       # DTB write accesses
system.cpu05.itb.write_hits                         0                       # DTB write hits
system.cpu05.itb.write_misses                       0                       # DTB write misses
system.cpu05.not_idle_fraction               0.016608                       # Percentage of non-idle cycles
system.cpu05.numCycles                        1704367                       # number of cpu cycles simulated
system.cpu05.numPwrStateTransitions                 2                       # Number of power state transitions
system.cpu05.numWorkItemsCompleted                  0                       # number of work items this cpu completed
system.cpu05.numWorkItemsStarted                    0                       # number of work items this cpu started
system.cpu05.num_busy_cycles             28305.370880                       # Number of busy cycles
system.cpu05.num_conditional_control_insts          113                       # number of instructions that are conditional controls
system.cpu05.num_fp_alu_accesses                   12                       # Number of float alu accesses
system.cpu05.num_fp_insts                          12                       # number of float instructions
system.cpu05.num_fp_register_reads                 12                       # number of times the floating registers were read
system.cpu05.num_fp_register_writes                 0                       # number of times the floating registers were written
system.cpu05.num_func_calls                       104                       # number of times a function call or return occured
system.cpu05.num_idle_cycles             1676061.629120                       # Number of idle cycles
system.cpu05.num_int_alu_accesses                1088                       # Number of integer alu accesses
system.cpu05.num_int_insts                       1088                       # number of integer instructions
system.cpu05.num_int_register_reads              1270                       # number of times the integer registers were read
system.cpu05.num_int_register_writes              761                       # number of times the integer registers were written
system.cpu05.num_load_insts                       248                       # Number of load instructions
system.cpu05.num_mem_refs                         427                       # number of memory refs
system.cpu05.num_store_insts                      179                       # Number of store instructions
system.cpu05.num_vec_alu_accesses                   0                       # Number of vector alu accesses
system.cpu05.num_vec_insts                          0                       # number of vector instructions
system.cpu05.num_vec_register_reads                 0                       # number of times the vector registers were read
system.cpu05.num_vec_register_writes                0                       # number of times the vector registers were written
system.cpu05.op_class::No_OpClass                  10      0.90%      0.90% # Class of executed instruction
system.cpu05.op_class::IntAlu                     675     60.54%     61.43% # Class of executed instruction
system.cpu05.op_class::IntMult                      1      0.09%     61.52% # Class of executed instruction
system.cpu05.op_class::IntDiv                       2      0.18%     61.70% # Class of executed instruction
system.cpu05.op_class::FloatAdd                     0      0.00%     61.70% # Class of executed instruction
system.cpu05.op_class::FloatCmp                     0      0.00%     61.70% # Class of executed instruction
system.cpu05.op_class::FloatCvt                     0      0.00%     61.70% # Class of executed instruction
system.cpu05.op_class::FloatMult                    0      0.00%     61.70% # Class of executed instruction
system.cpu05.op_class::FloatMultAcc                 0      0.00%     61.70% # Class of executed instruction
system.cpu05.op_class::FloatDiv                     0      0.00%     61.70% # Class of executed instruction
system.cpu05.op_class::FloatMisc                    0      0.00%     61.70% # Class of executed instruction
system.cpu05.op_class::FloatSqrt                    0      0.00%     61.70% # Class of executed instruction
system.cpu05.op_class::SimdAdd                      0      0.00%     61.70% # Class of executed instruction
system.cpu05.op_class::SimdAddAcc                   0      0.00%     61.70% # Class of executed instruction
system.cpu05.op_class::SimdAlu                      0      0.00%     61.70% # Class of executed instruction
system.cpu05.op_class::SimdCmp                      0      0.00%     61.70% # Class of executed instruction
system.cpu05.op_class::SimdCvt                      0      0.00%     61.70% # Class of executed instruction
system.cpu05.op_class::SimdMisc                     0      0.00%     61.70% # Class of executed instruction
system.cpu05.op_class::SimdMult                     0      0.00%     61.70% # Class of executed instruction
system.cpu05.op_class::SimdMultAcc                  0      0.00%     61.70% # Class of executed instruction
system.cpu05.op_class::SimdShift                    0      0.00%     61.70% # Class of executed instruction
system.cpu05.op_class::SimdShiftAcc                 0      0.00%     61.70% # Class of executed instruction
system.cpu05.op_class::SimdSqrt                     0      0.00%     61.70% # Class of executed instruction
system.cpu05.op_class::SimdFloatAdd                 0      0.00%     61.70% # Class of executed instruction
system.cpu05.op_class::SimdFloatAlu                 0      0.00%     61.70% # Class of executed instruction
system.cpu05.op_class::SimdFloatCmp                 0      0.00%     61.70% # Class of executed instruction
system.cpu05.op_class::SimdFloatCvt                 0      0.00%     61.70% # Class of executed instruction
system.cpu05.op_class::SimdFloatDiv                 0      0.00%     61.70% # Class of executed instruction
system.cpu05.op_class::SimdFloatMisc                0      0.00%     61.70% # Class of executed instruction
system.cpu05.op_class::SimdFloatMult                0      0.00%     61.70% # Class of executed instruction
system.cpu05.op_class::SimdFloatMultAcc             0      0.00%     61.70% # Class of executed instruction
system.cpu05.op_class::SimdFloatSqrt                0      0.00%     61.70% # Class of executed instruction
system.cpu05.op_class::SimdAes                      0      0.00%     61.70% # Class of executed instruction
system.cpu05.op_class::SimdAesMix                   0      0.00%     61.70% # Class of executed instruction
system.cpu05.op_class::SimdSha1Hash                 0      0.00%     61.70% # Class of executed instruction
system.cpu05.op_class::SimdSha1Hash2                0      0.00%     61.70% # Class of executed instruction
system.cpu05.op_class::SimdSha256Hash               0      0.00%     61.70% # Class of executed instruction
system.cpu05.op_class::SimdSha256Hash2              0      0.00%     61.70% # Class of executed instruction
system.cpu05.op_class::SimdShaSigma2                0      0.00%     61.70% # Class of executed instruction
system.cpu05.op_class::SimdShaSigma3                0      0.00%     61.70% # Class of executed instruction
system.cpu05.op_class::MemRead                    252     22.60%     84.30% # Class of executed instruction
system.cpu05.op_class::MemWrite                   163     14.62%     98.92% # Class of executed instruction
system.cpu05.op_class::FloatMemRead                 0      0.00%     98.92% # Class of executed instruction
system.cpu05.op_class::FloatMemWrite               12      1.08%    100.00% # Class of executed instruction
system.cpu05.op_class::IprAccess                    0      0.00%    100.00% # Class of executed instruction
system.cpu05.op_class::InstPrefetch                 0      0.00%    100.00% # Class of executed instruction
system.cpu05.op_class::total                     1115                       # Class of executed instruction
system.cpu05.pwrStateClkGateDist::samples            1                       # Distribution of time spent in the clock gated state
system.cpu05.pwrStateClkGateDist::mean      134788500                       # Distribution of time spent in the clock gated state
system.cpu05.pwrStateClkGateDist::1000-5e+10            1    100.00%    100.00% # Distribution of time spent in the clock gated state
system.cpu05.pwrStateClkGateDist::min_value    134788500                       # Distribution of time spent in the clock gated state
system.cpu05.pwrStateClkGateDist::max_value    134788500                       # Distribution of time spent in the clock gated state
system.cpu05.pwrStateClkGateDist::total             1                       # Distribution of time spent in the clock gated state
system.cpu05.pwrStateResidencyTicks::ON     717414000                       # Cumulative time (in ticks) in various power states
system.cpu05.pwrStateResidencyTicks::CLK_GATED    134788500                       # Cumulative time (in ticks) in various power states
system.cpu06.Branches                             208                       # Number of branches fetched
system.cpu06.committedInsts                      1042                       # Number of instructions committed
system.cpu06.committedOps                        1048                       # Number of ops (including micro ops) committed
system.cpu06.dtb.accesses                           0                       # DTB accesses
system.cpu06.dtb.hits                               0                       # DTB hits
system.cpu06.dtb.misses                             0                       # DTB misses
system.cpu06.dtb.pwrStateResidencyTicks::UNDEFINED    852202500                       # Cumulative time (in ticks) in various power states
system.cpu06.dtb.read_accesses                      0                       # DTB read accesses
system.cpu06.dtb.read_hits                          0                       # DTB read hits
system.cpu06.dtb.read_misses                        0                       # DTB read misses
system.cpu06.dtb.write_accesses                     0                       # DTB write accesses
system.cpu06.dtb.write_hits                         0                       # DTB write hits
system.cpu06.dtb.write_misses                       0                       # DTB write misses
system.cpu06.idle_fraction                   0.983560                       # Percentage of idle cycles
system.cpu06.itb.accesses                           0                       # DTB accesses
system.cpu06.itb.hits                               0                       # DTB hits
system.cpu06.itb.misses                             0                       # DTB misses
system.cpu06.itb.pwrStateResidencyTicks::UNDEFINED    852202500                       # Cumulative time (in ticks) in various power states
system.cpu06.itb.read_accesses                      0                       # DTB read accesses
system.cpu06.itb.read_hits                          0                       # DTB read hits
system.cpu06.itb.read_misses                        0                       # DTB read misses
system.cpu06.itb.write_accesses                     0                       # DTB write accesses
system.cpu06.itb.write_hits                         0                       # DTB write hits
system.cpu06.itb.write_misses                       0                       # DTB write misses
system.cpu06.not_idle_fraction               0.016440                       # Percentage of non-idle cycles
system.cpu06.numCycles                        1704404                       # number of cpu cycles simulated
system.cpu06.numPwrStateTransitions                 2                       # Number of power state transitions
system.cpu06.numWorkItemsCompleted                  0                       # number of work items this cpu completed
system.cpu06.numWorkItemsStarted                    0                       # number of work items this cpu started
system.cpu06.num_busy_cycles             28020.985527                       # Number of busy cycles
system.cpu06.num_conditional_control_insts          108                       # number of instructions that are conditional controls
system.cpu06.num_fp_alu_accesses                   12                       # Number of float alu accesses
system.cpu06.num_fp_insts                          12                       # number of float instructions
system.cpu06.num_fp_register_reads                 12                       # number of times the floating registers were read
system.cpu06.num_fp_register_writes                 0                       # number of times the floating registers were written
system.cpu06.num_func_calls                       100                       # number of times a function call or return occured
system.cpu06.num_idle_cycles             1676383.014473                       # Number of idle cycles
system.cpu06.num_int_alu_accesses                1021                       # Number of integer alu accesses
system.cpu06.num_int_insts                       1021                       # number of integer instructions
system.cpu06.num_int_register_reads              1199                       # number of times the integer registers were read
system.cpu06.num_int_register_writes              709                       # number of times the integer registers were written
system.cpu06.num_load_insts                       233                       # Number of load instructions
system.cpu06.num_mem_refs                         405                       # number of memory refs
system.cpu06.num_store_insts                      172                       # Number of store instructions
system.cpu06.num_vec_alu_accesses                   0                       # Number of vector alu accesses
system.cpu06.num_vec_insts                          0                       # number of vector instructions
system.cpu06.num_vec_register_reads                 0                       # number of times the vector registers were read
system.cpu06.num_vec_register_writes                0                       # number of times the vector registers were written
system.cpu06.op_class::No_OpClass                  10      0.95%      0.95% # Class of executed instruction
system.cpu06.op_class::IntAlu                     632     60.19%     61.14% # Class of executed instruction
system.cpu06.op_class::IntMult                      1      0.10%     61.24% # Class of executed instruction
system.cpu06.op_class::IntDiv                       2      0.19%     61.43% # Class of executed instruction
system.cpu06.op_class::FloatAdd                     0      0.00%     61.43% # Class of executed instruction
system.cpu06.op_class::FloatCmp                     0      0.00%     61.43% # Class of executed instruction
system.cpu06.op_class::FloatCvt                     0      0.00%     61.43% # Class of executed instruction
system.cpu06.op_class::FloatMult                    0      0.00%     61.43% # Class of executed instruction
system.cpu06.op_class::FloatMultAcc                 0      0.00%     61.43% # Class of executed instruction
system.cpu06.op_class::FloatDiv                     0      0.00%     61.43% # Class of executed instruction
system.cpu06.op_class::FloatMisc                    0      0.00%     61.43% # Class of executed instruction
system.cpu06.op_class::FloatSqrt                    0      0.00%     61.43% # Class of executed instruction
system.cpu06.op_class::SimdAdd                      0      0.00%     61.43% # Class of executed instruction
system.cpu06.op_class::SimdAddAcc                   0      0.00%     61.43% # Class of executed instruction
system.cpu06.op_class::SimdAlu                      0      0.00%     61.43% # Class of executed instruction
system.cpu06.op_class::SimdCmp                      0      0.00%     61.43% # Class of executed instruction
system.cpu06.op_class::SimdCvt                      0      0.00%     61.43% # Class of executed instruction
system.cpu06.op_class::SimdMisc                     0      0.00%     61.43% # Class of executed instruction
system.cpu06.op_class::SimdMult                     0      0.00%     61.43% # Class of executed instruction
system.cpu06.op_class::SimdMultAcc                  0      0.00%     61.43% # Class of executed instruction
system.cpu06.op_class::SimdShift                    0      0.00%     61.43% # Class of executed instruction
system.cpu06.op_class::SimdShiftAcc                 0      0.00%     61.43% # Class of executed instruction
system.cpu06.op_class::SimdSqrt                     0      0.00%     61.43% # Class of executed instruction
system.cpu06.op_class::SimdFloatAdd                 0      0.00%     61.43% # Class of executed instruction
system.cpu06.op_class::SimdFloatAlu                 0      0.00%     61.43% # Class of executed instruction
system.cpu06.op_class::SimdFloatCmp                 0      0.00%     61.43% # Class of executed instruction
system.cpu06.op_class::SimdFloatCvt                 0      0.00%     61.43% # Class of executed instruction
system.cpu06.op_class::SimdFloatDiv                 0      0.00%     61.43% # Class of executed instruction
system.cpu06.op_class::SimdFloatMisc                0      0.00%     61.43% # Class of executed instruction
system.cpu06.op_class::SimdFloatMult                0      0.00%     61.43% # Class of executed instruction
system.cpu06.op_class::SimdFloatMultAcc             0      0.00%     61.43% # Class of executed instruction
system.cpu06.op_class::SimdFloatSqrt                0      0.00%     61.43% # Class of executed instruction
system.cpu06.op_class::SimdAes                      0      0.00%     61.43% # Class of executed instruction
system.cpu06.op_class::SimdAesMix                   0      0.00%     61.43% # Class of executed instruction
system.cpu06.op_class::SimdSha1Hash                 0      0.00%     61.43% # Class of executed instruction
system.cpu06.op_class::SimdSha1Hash2                0      0.00%     61.43% # Class of executed instruction
system.cpu06.op_class::SimdSha256Hash               0      0.00%     61.43% # Class of executed instruction
system.cpu06.op_class::SimdSha256Hash2              0      0.00%     61.43% # Class of executed instruction
system.cpu06.op_class::SimdShaSigma2                0      0.00%     61.43% # Class of executed instruction
system.cpu06.op_class::SimdShaSigma3                0      0.00%     61.43% # Class of executed instruction
system.cpu06.op_class::MemRead                    237     22.57%     84.00% # Class of executed instruction
system.cpu06.op_class::MemWrite                   156     14.86%     98.86% # Class of executed instruction
system.cpu06.op_class::FloatMemRead                 0      0.00%     98.86% # Class of executed instruction
system.cpu06.op_class::FloatMemWrite               12      1.14%    100.00% # Class of executed instruction
system.cpu06.op_class::IprAccess                    0      0.00%    100.00% # Class of executed instruction
system.cpu06.op_class::InstPrefetch                 0      0.00%    100.00% # Class of executed instruction
system.cpu06.op_class::total                     1050                       # Class of executed instruction
system.cpu06.pwrStateClkGateDist::samples            1                       # Distribution of time spent in the clock gated state
system.cpu06.pwrStateClkGateDist::mean      121247000                       # Distribution of time spent in the clock gated state
system.cpu06.pwrStateClkGateDist::1000-5e+10            1    100.00%    100.00% # Distribution of time spent in the clock gated state
system.cpu06.pwrStateClkGateDist::min_value    121247000                       # Distribution of time spent in the clock gated state
[...]
system.ruby.network.int_links39.credit_link.pwrStateResidencyTicks::UNDEFINED    852202500                       # Cumulative time (in ticks) in various power states
system.ruby.network.int_links39.network_link.pwrStateResidencyTicks::UNDEFINED    852202500                       # Cumulative time (in ticks) in various power states
system.ruby.network.int_links40.credit_link.pwrStateResidencyTicks::UNDEFINED    852202500                       # Cumulative time (in ticks) in various power states
system.ruby.network.int_links40.network_link.pwrStateResidencyTicks::UNDEFINED    852202500                       # Cumulative time (in ticks) in various power states
system.ruby.network.int_links41.credit_link.pwrStateResidencyTicks::UNDEFINED    852202500                       # Cumulative time (in ticks) in various power states
system.ruby.network.int_links41.network_link.pwrStateResidencyTicks::UNDEFINED    852202500                       # Cumulative time (in ticks) in various power states
system.ruby.network.int_links42.credit_link.pwrStateResidencyTicks::UNDEFINED    852202500                       # Cumulative time (in ticks) in various power states
system.ruby.network.int_links42.network_link.pwrStateResidencyTicks::UNDEFINED    852202500                       # Cumulative time (in ticks) in various power states
system.ruby.network.int_links43.credit_link.pwrStateResidencyTicks::UNDEFINED    852202500                       # Cumulative time (in ticks) in various power states
system.ruby.network.int_links43.network_link.pwrStateResidencyTicks::UNDEFINED    852202500                       # Cumulative time (in ticks) in various power states
system.ruby.network.int_links44.credit_link.pwrStateResidencyTicks::UNDEFINED    852202500                       # Cumulative time (in ticks) in various power states
system.ruby.network.int_links44.network_link.pwrStateResidencyTicks::UNDEFINED    852202500                       # Cumulative time (in ticks) in various power states
system.ruby.network.int_links45.credit_link.pwrStateResidencyTicks::UNDEFINED    852202500                       # Cumulative time (in ticks) in various power states
system.ruby.network.int_links45.network_link.pwrStateResidencyTicks::UNDEFINED    852202500                       # Cumulative time (in ticks) in various power states
system.ruby.network.int_links46.credit_link.pwrStateResidencyTicks::UNDEFINED    852202500                       # Cumulative time (in ticks) in various power states
system.ruby.network.int_links46.network_link.pwrStateResidencyTicks::UNDEFINED    852202500                       # Cumulative time (in ticks) in various power states
system.ruby.network.int_links47.credit_link.pwrStateResidencyTicks::UNDEFINED    852202500                       # Cumulative time (in ticks) in various power states
system.ruby.network.int_links47.network_link.pwrStateResidencyTicks::UNDEFINED    852202500                       # Cumulative time (in ticks) in various power states
system.ruby.network.netifs00.pwrStateResidencyTicks::UNDEFINED    852202500                       # Cumulative time (in ticks) in various power states
system.ruby.network.netifs01.pwrStateResidencyTicks::UNDEFINED    852202500                       # Cumulative time (in ticks) in various power states
system.ruby.network.netifs02.pwrStateResidencyTicks::UNDEFINED    852202500                       # Cumulative time (in ticks) in various power states
system.ruby.network.netifs03.pwrStateResidencyTicks::UNDEFINED    852202500                       # Cumulative time (in ticks) in various power states
system.ruby.network.netifs04.pwrStateResidencyTicks::UNDEFINED    852202500                       # Cumulative time (in ticks) in various power states
system.ruby.network.netifs05.pwrStateResidencyTicks::UNDEFINED    852202500                       # Cumulative time (in ticks) in various power states
system.ruby.network.netifs06.pwrStateResidencyTicks::UNDEFINED    852202500                       # Cumulative time (in ticks) in various power states
system.ruby.network.netifs07.pwrStateResidencyTicks::UNDEFINED    852202500                       # Cumulative time (in ticks) in various power states
system.ruby.network.netifs08.pwrStateResidencyTicks::UNDEFINED    852202500                       # Cumulative time (in ticks) in various power states
system.ruby.network.netifs09.pwrStateResidencyTicks::UNDEFINED    852202500                       # Cumulative time (in ticks) in various power states
system.ruby.network.netifs10.pwrStateResidencyTicks::UNDEFINED    852202500                       # Cumulative time (in ticks) in various power states
system.ruby.network.netifs11.pwrStateResidencyTicks::UNDEFINED    852202500                       # Cumulative time (in ticks) in various power states
system.ruby.network.netifs12.pwrStateResidencyTicks::UNDEFINED    852202500                       # Cumulative time (in ticks) in various power states
system.ruby.network.netifs13.pwrStateResidencyTicks::UNDEFINED    852202500                       # Cumulative time (in ticks) in various power states
system.ruby.network.netifs14.pwrStateResidencyTicks::UNDEFINED    852202500                       # Cumulative time (in ticks) in various power states
system.ruby.network.netifs15.pwrStateResidencyTicks::UNDEFINED    852202500                       # Cumulative time (in ticks) in various power states
system.ruby.network.netifs16.pwrStateResidencyTicks::UNDEFINED    852202500                       # Cumulative time (in ticks) in various power states
system.ruby.network.netifs17.pwrStateResidencyTicks::UNDEFINED    852202500                       # Cumulative time (in ticks) in various power states
system.ruby.network.netifs18.pwrStateResidencyTicks::UNDEFINED    852202500                       # Cumulative time (in ticks) in various power states
system.ruby.network.netifs19.pwrStateResidencyTicks::UNDEFINED    852202500                       # Cumulative time (in ticks) in various power states
system.ruby.network.netifs20.pwrStateResidencyTicks::UNDEFINED    852202500                       # Cumulative time (in ticks) in various power states
system.ruby.network.netifs21.pwrStateResidencyTicks::UNDEFINED    852202500                       # Cumulative time (in ticks) in various power states
system.ruby.network.netifs22.pwrStateResidencyTicks::UNDEFINED    852202500                       # Cumulative time (in ticks) in various power states
system.ruby.network.netifs23.pwrStateResidencyTicks::UNDEFINED    852202500                       # Cumulative time (in ticks) in various power states
system.ruby.network.netifs24.pwrStateResidencyTicks::UNDEFINED    852202500                       # Cumulative time (in ticks) in various power states
system.ruby.network.netifs25.pwrStateResidencyTicks::UNDEFINED    852202500                       # Cumulative time (in ticks) in various power states
system.ruby.network.netifs26.pwrStateResidencyTicks::UNDEFINED    852202500                       # Cumulative time (in ticks) in various power states
system.ruby.network.netifs27.pwrStateResidencyTicks::UNDEFINED    852202500                       # Cumulative time (in ticks) in various power states
system.ruby.network.netifs28.pwrStateResidencyTicks::UNDEFINED    852202500                       # Cumulative time (in ticks) in various power states
system.ruby.network.netifs29.pwrStateResidencyTicks::UNDEFINED    852202500                       # Cumulative time (in ticks) in various power states
system.ruby.network.netifs30.pwrStateResidencyTicks::UNDEFINED    852202500                       # Cumulative time (in ticks) in various power states
system.ruby.network.netifs31.pwrStateResidencyTicks::UNDEFINED    852202500                       # Cumulative time (in ticks) in various power states
system.ruby.network.netifs32.pwrStateResidencyTicks::UNDEFINED    852202500                       # Cumulative time (in ticks) in various power states
system.ruby.network.netifs33.pwrStateResidencyTicks::UNDEFINED    852202500                       # Cumulative time (in ticks) in various power states
system.ruby.network.netifs34.pwrStateResidencyTicks::UNDEFINED    852202500                       # Cumulative time (in ticks) in various power states
system.ruby.network.netifs35.pwrStateResidencyTicks::UNDEFINED    852202500                       # Cumulative time (in ticks) in various power states
system.ruby.network.packet_network_latency |      613970                       |      963205                       |      222187                      
system.ruby.network.packet_queueing_latency |      186338                       |      110750                       |       20272                      
system.ruby.network.packets_injected     |       21710     34.63%     34.63% |       31592     50.39%     85.02% |        9393     14.98%    100.00%
system.ruby.network.packets_injected::total        62695                      
system.ruby.network.packets_received     |       21708     34.63%     34.63% |       31582     50.38%     85.02% |        9392     14.98%    100.00%
system.ruby.network.packets_received::total        62682                      
system.ruby.network.pwrStateResidencyTicks::UNDEFINED    852202500                       # Cumulative time (in ticks) in various power states
system.ruby.network.routers00.buffer_reads       103421                      
system.ruby.network.routers00.buffer_writes       103421                      
system.ruby.network.routers00.crossbar_activity       103419                      
system.ruby.network.routers00.pwrStateResidencyTicks::UNDEFINED    852202500                       # Cumulative time (in ticks) in various power states
system.ruby.network.routers00.sw_input_arbiter_activity       103510                      
system.ruby.network.routers00.sw_output_arbiter_activity       103419                      
system.ruby.network.routers01.buffer_reads        48658                      
system.ruby.network.routers01.buffer_writes        48658                      
system.ruby.network.routers01.crossbar_activity        48658                      
system.ruby.network.routers01.pwrStateResidencyTicks::UNDEFINED    852202500                       # Cumulative time (in ticks) in various power states
system.ruby.network.routers01.sw_input_arbiter_activity        48682                      
system.ruby.network.routers01.sw_output_arbiter_activity        48658                      
system.ruby.network.routers02.buffer_reads        34443                      
system.ruby.network.routers02.buffer_writes        34443                      
system.ruby.network.routers02.crossbar_activity        34443                      
system.ruby.network.routers02.pwrStateResidencyTicks::UNDEFINED    852202500                       # Cumulative time (in ticks) in various power states
system.ruby.network.routers02.sw_input_arbiter_activity        34495                      
system.ruby.network.routers02.sw_output_arbiter_activity        34443                      
system.ruby.network.routers03.buffer_reads        23929                      
system.ruby.network.routers03.buffer_writes        23929                      
system.ruby.network.routers03.crossbar_activity        23929                      
system.ruby.network.routers03.pwrStateResidencyTicks::UNDEFINED    852202500                       # Cumulative time (in ticks) in various power states
system.ruby.network.routers03.sw_input_arbiter_activity        23960                      
system.ruby.network.routers03.sw_output_arbiter_activity        23929                      
system.ruby.network.routers04.buffer_reads        59552                      
system.ruby.network.routers04.buffer_writes        59552                      
system.ruby.network.routers04.crossbar_activity        59551                      
system.ruby.network.routers04.pwrStateResidencyTicks::UNDEFINED    852202500                       # Cumulative time (in ticks) in various power states
system.ruby.network.routers04.sw_input_arbiter_activity        59652                      
system.ruby.network.routers04.sw_output_arbiter_activity        59551                      
system.ruby.network.routers05.buffer_reads        25105                      
system.ruby.network.routers05.buffer_writes        25105                      
system.ruby.network.routers05.crossbar_activity        25104                      
system.ruby.network.routers05.pwrStateResidencyTicks::UNDEFINED    852202500                       # Cumulative time (in ticks) in various power states
system.ruby.network.routers05.sw_input_arbiter_activity        25117                      
system.ruby.network.routers05.sw_output_arbiter_activity        25104                      
system.ruby.network.routers06.buffer_reads        19671                      
system.ruby.network.routers06.buffer_writes        19671                      
system.ruby.network.routers06.crossbar_activity        19671                      
system.ruby.network.routers06.pwrStateResidencyTicks::UNDEFINED    852202500                       # Cumulative time (in ticks) in various power states
system.ruby.network.routers06.sw_input_arbiter_activity        19701                      
system.ruby.network.routers06.sw_output_arbiter_activity        19671                      
system.ruby.network.routers07.buffer_reads        18982                      
system.ruby.network.routers07.buffer_writes        18982                      
system.ruby.network.routers07.crossbar_activity        18982                      
system.ruby.network.routers07.pwrStateResidencyTicks::UNDEFINED    852202500                       # Cumulative time (in ticks) in various power states
system.ruby.network.routers07.sw_input_arbiter_activity        19074                      
system.ruby.network.routers07.sw_output_arbiter_activity        18982                      
system.ruby.network.routers08.buffer_reads        43905                      
system.ruby.network.routers08.buffer_writes        43905                      
system.ruby.network.routers08.crossbar_activity        43899                      
system.ruby.network.routers08.pwrStateResidencyTicks::UNDEFINED    852202500                       # Cumulative time (in ticks) in various power states
system.ruby.network.routers08.sw_input_arbiter_activity        44183                      
system.ruby.network.routers08.sw_output_arbiter_activity        43899                      
system.ruby.network.routers09.buffer_reads        21528                      
system.ruby.network.routers09.buffer_writes        21528                      
system.ruby.network.routers09.crossbar_activity        21528                      
system.ruby.network.routers09.pwrStateResidencyTicks::UNDEFINED    852202500                       # Cumulative time (in ticks) in various power states
system.ruby.network.routers09.sw_input_arbiter_activity        21561                      
system.ruby.network.routers09.sw_output_arbiter_activity        21528                      
system.ruby.network.routers10.buffer_reads        22208                      
system.ruby.network.routers10.buffer_writes        22208                      
system.ruby.network.routers10.crossbar_activity        22206                      
system.ruby.network.routers10.pwrStateResidencyTicks::UNDEFINED    852202500                       # Cumulative time (in ticks) in various power states
system.ruby.network.routers10.sw_input_arbiter_activity        22269                      
system.ruby.network.routers10.sw_output_arbiter_activity        22206                      
system.ruby.network.routers11.buffer_reads        23130                      
system.ruby.network.routers11.buffer_writes        23130                      
system.ruby.network.routers11.crossbar_activity        23127                      
system.ruby.network.routers11.pwrStateResidencyTicks::UNDEFINED    852202500                       # Cumulative time (in ticks) in various power states
system.ruby.network.routers11.sw_input_arbiter_activity        23317                      
system.ruby.network.routers11.sw_output_arbiter_activity        23127                      
system.ruby.network.routers12.buffer_reads        39895                      
system.ruby.network.routers12.buffer_writes        39895                      
system.ruby.network.routers12.crossbar_activity        39888                      
system.ruby.network.routers12.pwrStateResidencyTicks::UNDEFINED    852202500                       # Cumulative time (in ticks) in various power states
system.ruby.network.routers12.sw_input_arbiter_activity        40106                      
system.ruby.network.routers12.sw_output_arbiter_activity        39888                      
system.ruby.network.routers13.buffer_reads        30092                      
system.ruby.network.routers13.buffer_writes        30092                      
system.ruby.network.routers13.crossbar_activity        30091                      
system.ruby.network.routers13.pwrStateResidencyTicks::UNDEFINED    852202500                       # Cumulative time (in ticks) in various power states
system.ruby.network.routers13.sw_input_arbiter_activity        30154                      
system.ruby.network.routers13.sw_output_arbiter_activity        30091                      
system.ruby.network.routers14.buffer_reads        25644                      
system.ruby.network.routers14.buffer_writes        25644                      
system.ruby.network.routers14.crossbar_activity        25640                      
system.ruby.network.routers14.pwrStateResidencyTicks::UNDEFINED    852202500                       # Cumulative time (in ticks) in various power states
system.ruby.network.routers14.sw_input_arbiter_activity        25695                      
system.ruby.network.routers14.sw_output_arbiter_activity        25640                      
system.ruby.network.routers15.buffer_reads        20646                      
system.ruby.network.routers15.buffer_writes        20646                      
system.ruby.network.routers15.crossbar_activity        20644                      
system.ruby.network.routers15.pwrStateResidencyTicks::UNDEFINED    852202500                       # Cumulative time (in ticks) in various power states
system.ruby.network.routers15.sw_input_arbiter_activity        20765                      
system.ruby.network.routers15.sw_output_arbiter_activity        20644                      
system.ruby.outstanding_req_hist_seqr::bucket_size            1                      
system.ruby.outstanding_req_hist_seqr::max_bucket            9                      
system.ruby.outstanding_req_hist_seqr::samples       183735                      
system.ruby.outstanding_req_hist_seqr::mean            1                      
system.ruby.outstanding_req_hist_seqr::gmean            1                      
system.ruby.outstanding_req_hist_seqr    |           0      0.00%      0.00% |      183735    100.00%    100.00% |           0      0.00%    100.00% |           0      0.00%    100.00% |           0      0.00%    100.00% |           0      0.00%    100.00% |           0      0.00%    100.00% |           0      0.00%    100.00% |           0      0.00%    100.00% |           0      0.00%    100.00%
system.ruby.outstanding_req_hist_seqr::total       183735                      
system.ruby.pwrStateResidencyTicks::UNDEFINED    852202500                       # Cumulative time (in ticks) in various power states
system.sys_port_proxy.pwrStateResidencyTicks::UNDEFINED    852202500                       # Cumulative time (in ticks) in various power states
system.voltage_domain.voltage                       1                       # Voltage in Volts

---------- End Simulation Statistics   ----------
