
---------- Begin Simulation Statistics ----------
final_tick                                  869926000                       # Number of ticks from beginning of simulation (restored from checkpoints and never reset)
host_inst_rate                                  24826                       # Simulator instruction rate (inst/s)
host_mem_usage                                5159784                       # Number of bytes of host memory used
host_op_rate                                    24909                       # Simulator op (including micro ops) rate (op/s)
host_seconds                                     4.59                       # Real time elapsed on the host
host_tick_rate                              189355164                       # Simulator tick rate (ticks/s)
sim_freq                                 1000000000000                       # Frequency of simulated ticks
sim_insts                                      114051                       # Number of instructions simulated
sim_ops                                        114433                       # Number of ops (including micro ops) simulated
sim_seconds                                  0.000870                       # Number of seconds simulated
sim_ticks                                   869926000                       # Number of ticks simulated
system.clk_domain.clock                          1000                       # Clock period in ticks
system.cpu00.Branches                           22348                       # Number of branches fetched
system.cpu00.committedInsts                    100001                       # Number of instructions committed
system.cpu00.committedOps                      100294                       # Number of ops (including micro ops) committed
system.cpu00.dtb.accesses                           0                       # DTB accesses
system.cpu00.dtb.hits                               0                       # DTB hits
system.cpu00.dtb.misses                             0                       # DTB misses
system.cpu00.dtb.pwrStateResidencyTicks::UNDEFINED    869926000                       # Cumulative time (in ticks) in various power states
system.cpu00.dtb.read_accesses                      0                       # DTB read accesses
system.cpu00.dtb.read_hits                          0                       # DTB read hits
system.cpu00.dtb.read_misses                        0                       # DTB read misses
system.cpu00.dtb.write_accesses                     0                       # DTB write accesses
system.cpu00.dtb.write_hits                         0                       # DTB write hits
system.cpu00.dtb.write_misses                       0                       # DTB write misses
system.cpu00.idle_fraction                   0.001752                       # Percentage of idle cycles
system.cpu00.itb.accesses                           0                       # DTB accesses
system.cpu00.itb.hits                               0                       # DTB hits
system.cpu00.itb.misses                             0                       # DTB misses
system.cpu00.itb.pwrStateResidencyTicks::UNDEFINED    869926000                       # Cumulative time (in ticks) in various power states
system.cpu00.itb.read_accesses                      0                       # DTB read accesses
system.cpu00.itb.read_hits                          0                       # DTB read hits
system.cpu00.itb.read_misses                        0                       # DTB read misses
system.cpu00.itb.write_accesses                     0                       # DTB write accesses
system.cpu00.itb.write_hits                         0                       # DTB write hits
system.cpu00.itb.write_misses                       0                       # DTB write misses
system.cpu00.not_idle_fraction               0.998248                       # Percentage of non-idle cycles
system.cpu00.numCycles                        1739852                       # number of cpu cycles simulated
system.cpu00.numPwrStateTransitions                 2                       # Number of power state transitions
system.cpu00.numWorkItemsCompleted                  0                       # number of work items this cpu completed
system.cpu00.numWorkItemsStarted                    0                       # number of work items this cpu started
system.cpu00.num_busy_cycles             1736803.000004                       # Number of busy cycles
system.cpu00.num_conditional_control_insts        15925                       # number of instructions that are conditional controls
system.cpu00.num_fp_alu_accesses                   12                       # Number of float alu accesses
system.cpu00.num_fp_insts                          12                       # number of float instructions
system.cpu00.num_fp_register_reads                 12                       # number of times the floating registers were read
system.cpu00.num_fp_register_writes                 0                       # number of times the floating registers were written
system.cpu00.num_func_calls                      6423                       # number of times a function call or return occured
system.cpu00.num_idle_cycles              3048.999996                       # Number of idle cycles
system.cpu00.num_int_alu_accesses               98832                       # Number of integer alu accesses
system.cpu00.num_int_insts                      98832                       # number of integer instructions
system.cpu00.num_int_register_reads            120840                       # number of times the integer registers were read
system.cpu00.num_int_register_writes            64471                       # number of times the integer registers were written
system.cpu00.num_load_insts                     20289                       # Number of load instructions
system.cpu00.num_mem_refs                       36557                       # number of memory refs
system.cpu00.num_store_insts                    16268                       # Number of store instructions
system.cpu00.num_vec_alu_accesses                   0                       # Number of vector alu accesses
system.cpu00.num_vec_insts                          0                       # number of vector instructions
system.cpu00.num_vec_register_reads                 0                       # number of times the vector registers were read
system.cpu00.num_vec_register_writes                0                       # number of times the vector registers were written
system.cpu00.op_class::No_OpClass                 859      0.86%      0.86% # Class of executed instruction
system.cpu00.op_class::IntAlu                   62914     62.68%     63.54% # Class of executed instruction
system.cpu00.op_class::IntMult                     30      0.03%     63.57% # Class of executed instruction
system.cpu00.op_class::IntDiv                       6      0.01%     63.58% # Class of executed instruction
system.cpu00.op_class::FloatAdd                     0      0.00%     63.58% # Class of executed instruction
system.cpu00.op_class::FloatCmp                     0      0.00%     63.58% # Class of executed instruction
system.cpu00.op_class::FloatCvt                     0      0.00%     63.58% # Class of executed instruction
system.cpu00.op_class::FloatMult                    0      0.00%     63.58% # Class of executed instruction
system.cpu00.op_class::FloatMultAcc                 0      0.00%     63.58% # Class of executed instruction
system.cpu00.op_class::FloatDiv                     0      0.00%     63.58% # Class of executed instruction
system.cpu00.op_class::FloatMisc                    0      0.00%     63.58% # Class of executed instruction
system.cpu00.op_class::FloatSqrt                    0      0.00%     63.58% # Class of executed instruction
system.cpu00.op_class::SimdAdd                      0      0.00%     63.58% # Class of executed instruction
system.cpu00.op_class::SimdAddAcc                   0      0.00%     63.58% # Class of executed instruction
system.cpu00.op_class::SimdAlu                      0      0.00%     63.58% # Class of executed instruction
system.cpu00.op_class::SimdCmp                      0      0.00%     63.58% # Class of executed instruction
system.cpu00.op_class::SimdCvt                      0      0.00%     63.58% # Class of executed instruction
system.cpu00.op_class::SimdMisc                     0      0.00%     63.58% # Class of executed instruction
system.cpu00.op_class::SimdMult                     0      0.00%     63.58% # Class of executed instruction
system.cpu00.op_class::SimdMultAcc                  0      0.00%     63.58% # Class of executed instruction
system.cpu00.op_class::SimdShift                    0      0.00%     63.58% # Class of executed instruction
system.cpu00.op_class::SimdShiftAcc                 0      0.00%     63.58% # Class of executed instruction
system.cpu00.op_class::SimdSqrt                     0      0.00%     63.58% # Class of executed instruction
system.cpu00.op_class::SimdFloatAdd                 0      0.00%     63.58% # Class of executed instruction
system.cpu00.op_class::SimdFloatAlu                 0      0.00%     63.58% # Class of executed instruction
system.cpu00.op_class::SimdFloatCmp                 0      0.00%     63.58% # Class of executed instruction
system.cpu00.op_class::SimdFloatCvt                 0      0.00%     63.58% # Class of executed instruction
system.cpu00.op_class::SimdFloatDiv                 0      0.00%     63.58% # Class of executed instruction
system.cpu00.op_class::SimdFloatMisc                0      0.00%     63.58% # Class of executed instruction
system.cpu00.op_class::SimdFloatMult                0      0.00%     63.58% # Class of executed instruction
system.cpu00.op_class::SimdFloatMultAcc             0      0.00%     63.58% # Class of executed instruction
system.cpu00.op_class::SimdFloatSqrt                0      0.00%     63.58% # Class of executed instruction
system.cpu00.op_class::SimdAes                      0      0.00%     63.58% # Class of executed instruction
system.cpu00.op_class::SimdAesMix                   0      0.00%     63.58% # Class of executed instruction
system.cpu00.op_class::SimdSha1Hash                 0      0.00%     63.58% # Class of executed instruction
system.cpu00.op_class::SimdSha1Hash2                0      0.00%     63.58% # Class of executed instruction
system.cpu00.op_class::SimdSha256Hash               0      0.00%     63.58% # Class of executed instruction
system.cpu00.op_class::SimdSha256Hash2              0      0.00%     63.58% # Class of executed instruction
system.cpu00.op_class::SimdShaSigma2                0      0.00%     63.58% # Class of executed instruction
system.cpu00.op_class::SimdShaSigma3                0      0.00%     63.58% # Class of executed instruction
system.cpu00.op_class::MemRead                  20574     20.50%     84.08% # Class of executed instruction
system.cpu00.op_class::MemWrite                 15971     15.91%     99.99% # Class of executed instruction
system.cpu00.op_class::FloatMemRead                 0      0.00%     99.99% # Class of executed instruction
system.cpu00.op_class::FloatMemWrite               12      0.01%    100.00% # Class of executed instruction
system.cpu00.op_class::IprAccess                    0      0.00%    100.00% # Class of executed instruction
system.cpu00.op_class::InstPrefetch                 0      0.00%    100.00% # Class of executed instruction
system.cpu00.op_class::total                   100366                       # Class of executed instruction
system.cpu00.pwrStateClkGateDist::samples            1                       # Distribution of time spent in the clock gated state
system.cpu00.pwrStateClkGateDist::mean        1524500                       # Distribution of time spent in the clock gated state
system.cpu00.pwrStateClkGateDist::1000-5e+10            1    100.00%    100.00% # Distribution of time spent in the clock gated state
system.cpu00.pwrStateClkGateDist::min_value      1524500                       # Distribution of time spent in the clock gated state
system.cpu00.pwrStateClkGateDist::max_value      1524500                       # Distribution of time spent in the clock gated state
system.cpu00.pwrStateClkGateDist::total             1                       # Distribution of time spent in the clock gated state
system.cpu00.pwrStateResidencyTicks::ON     868401500                       # Cumulative time (in ticks) in various power states
system.cpu00.pwrStateResidencyTicks::CLK_GATED      1524500                       # Cumulative time (in ticks) in various power states
system.cpu00.workload.numSyscalls                  71                       # Number of system calls
system.cpu01.Branches                             176                       # Number of branches fetched
system.cpu01.committedInsts                       892                       # Number of instructions committed
system.cpu01.committedOps                         898                       # Number of ops (including micro ops) committed
system.cpu01.dtb.accesses                           0                       # DTB accesses
system.cpu01.dtb.hits                               0                       # DTB hits
system.cpu01.dtb.misses                             0                       # DTB misses
system.cpu01.dtb.pwrStateResidencyTicks::UNDEFINED    869926000                       # Cumulative time (in ticks) in various power states
system.cpu01.dtb.read_accesses                      0                       # DTB read accesses
system.cpu01.dtb.read_hits                          0                       # DTB read hits
system.cpu01.dtb.read_misses                        0                       # DTB read misses
system.cpu01.dtb.write_accesses                     0                       # DTB write accesses
system.cpu01.dtb.write_hits                         0                       # DTB write hits
system.cpu01.dtb.write_misses                       0                       # DTB write misses
system.cpu01.idle_fraction                   0.981014                       # Percentage of idle cycles
system.cpu01.itb.accesses                           0                       # DTB accesses
system.cpu01.itb.hits                               0                       # DTB hits
system.cpu01.itb.misses                             0                       # DTB misses
system.cpu01.itb.pwrStateResidencyTicks::UNDEFINED    869926000                       # Cumulative time (in ticks) in various power states
system.cpu01.itb.read_accesses                      0                       # DTB read accesses
system.cpu01.itb.read_hits                          0                       # DTB read hits
system.cpu01.itb.read_misses                        0                       # DTB read misses
system.cpu01.itb.write_accesses                     0                       # DTB write accesses
system.cpu01.itb.write_hits                         0                       # DTB write hits
system.cpu01.itb.write_misses                       0                       # DTB write misses
system.cpu01.not_idle_fraction               0.018986                       # Percentage of non-idle cycles
system.cpu01.numCycles                        1739682                       # number of cpu cycles simulated
system.cpu01.numPwrStateTransitions                 2                       # Number of power state transitions
system.cpu01.numWorkItemsCompleted                  0                       # number of work items this cpu completed
system.cpu01.numWorkItemsStarted                    0                       # number of work items this cpu started
system.cpu01.num_busy_cycles             33029.774325                       # Number of busy cycles
system.cpu01.num_conditional_control_insts           93                       # number of instructions that are conditional controls
system.cpu01.num_fp_alu_accesses                   12                       # Number of float alu accesses
system.cpu01.num_fp_insts                          12                       # number of float instructions
system.cpu01.num_fp_register_reads                 12                       # number of times the floating registers were read
system.cpu01.num_fp_register_writes                 0                       # number of times the floating registers were written
system.cpu01.num_func_calls                        83                       # number of times a function call or return occured
system.cpu01.num_idle_cycles             1706652.225675                       # Number of idle cycles
system.cpu01.num_int_alu_accesses                 878                       # Number of integer alu accesses
system.cpu01.num_int_insts                        878                       # number of integer instructions
system.cpu01.num_int_register_reads              1031                       # number of times the integer registers were read
system.cpu01.num_int_register_writes              603                       # number of times the integer registers were written
system.cpu01.num_load_insts                       197                       # Number of load instructions
system.cpu01.num_mem_refs                         354                       # number of memory refs
system.cpu01.num_store_insts                      157                       # Number of store instructions
system.cpu01.num_vec_alu_accesses                   0                       # Number of vector alu accesses
system.cpu01.num_vec_insts                          0                       # number of vector instructions
system.cpu01.num_vec_register_reads                 0                       # number of times the vector registers were read
system.cpu01.num_vec_register_writes                0                       # number of times the vector registers were written
system.cpu01.op_class::No_OpClass                  10      1.11%      1.11% # Class of executed instruction
system.cpu01.op_class::IntAlu                     533     59.22%     60.33% # Class of executed instruction
system.cpu01.op_class::IntMult                      1      0.11%     60.44% # Class of executed instruction
system.cpu01.op_class::IntDiv                       2      0.22%     60.67% # Class of executed instruction
system.cpu01.op_class::FloatAdd                     0      0.00%     60.67% # Class of executed instruction
system.cpu01.op_class::FloatCmp                     0      0.00%     60.67% # Class of executed instruction
system.cpu01.op_class::FloatCvt                     0      0.00%     60.67% # Class of executed instruction
system.cpu01.op_class::FloatMult                    0      0.00%     60.67% # Class of executed instruction
system.cpu01.op_class::FloatMultAcc                 0      0.00%     60.67% # Class of executed instruction
system.cpu01.op_class::FloatDiv                     0      0.00%     60.67% # Class of executed instruction
system.cpu01.op_class::FloatMisc                    0      0.00%     60.67% # Class of executed instruction
system.cpu01.op_class::FloatSqrt                    0      0.00%     60.67% # Class of executed instruction
system.cpu01.op_class::SimdAdd                      0      0.00%     60.67% # Class of executed instruction
system.cpu01.op_class::SimdAddAcc                   0      0.00%     60.67% # Class of executed instruction
system.cpu01.op_class::SimdAlu                      0      0.00%     60.67% # Class of executed instruction
system.cpu01.op_class::SimdCmp                      0      0.00%     60.67% # Class of executed instruction
system.cpu01.op_class::SimdCvt                      0      0.00%     60.67% # Class of executed instruction
system.cpu01.op_class::SimdMisc                     0      0.00%     60.67% # Class of executed instruction
system.cpu01.op_class::SimdMult                     0      0.00%     60.67% # Class of executed instruction
system.cpu01.op_class::SimdMultAcc                  0      0.00%     60.67% # Class of executed instruction
system.cpu01.op_class::SimdShift                    0      0.00%     60.67% # Class of executed instruction
system.cpu01.op_class::SimdShiftAcc                 0      0.00%     60.67% # Class of executed instruction
system.cpu01.op_class::SimdSqrt                     0      0.00%     60.67% # Class of executed instruction
system.cpu01.op_class::SimdFloatAdd                 0      0.00%     60.67% # Class of executed instruction
system.cpu01.op_class::SimdFloatAlu                 0      0.00%     60.67% # Class of executed instruction
system.cpu01.op_class::SimdFloatCmp                 0      0.00%     60.67% # Class of executed instruction
system.cpu01.op_class::SimdFloatCvt                 0      0.00%     60.67% # Class of executed instruction
system.cpu01.op_class::SimdFloatDiv                 0      0.00%     60.67% # Class of executed instruction
system.cpu01.op_class::SimdFloatMisc                0      0.00%     60.67% # Class of executed instruction
system.cpu01.op_class::SimdFloatMult                0      0.00%     60.67% # Class of executed instruction
system.cpu01.op_class::SimdFloatMultAcc             0      0.00%     60.67% # Class of executed instruction
system.cpu01.op_class::SimdFloatSqrt                0      0.00%     60.67% # Class of executed instruction
system.cpu01.op_class::SimdAes                      0      0.00%     60.67% # Class of executed instruction
system.cpu01.op_class::SimdAesMix                   0      0.00%     60.67% # Class of executed instruction
system.cpu01.op_class::SimdSha1Hash                 0      0.00%     60.67% # Class of executed instruction
system.cpu01.op_class::SimdSha1Hash2                0      0.00%     60.67% # Class of executed instruction
system.cpu01.op_class::SimdSha256Hash               0      0.00%     60.67% # Class of executed instruction
system.cpu01.op_class::SimdSha256Hash2              0      0.00%     60.67% # Class of executed instruction
system.cpu01.op_class::SimdShaSigma2                0      0.00%     60.67% # Class of executed instruction
system.cpu01.op_class::SimdShaSigma3                0      0.00%     60.67% # Class of executed instruction
system.cpu01.op_class::MemRead                    201     22.33%     83.00% # Class of executed instruction
system.cpu01.op_class::MemWrite                   141     15.67%     98.67% # Class of executed instruction
system.cpu01.op_class::FloatMemRead                 0      0.00%     98.67% # Class of executed instruction
system.cpu01.op_class::FloatMemWrite               12      1.33%    100.00% # Class of executed instruction
system.cpu01.op_class::IprAccess                    0      0.00%    100.00% # Class of executed instruction
system.cpu01.op_class::InstPrefetch                 0      0.00%    100.00% # Class of executed instruction
system.cpu01.op_class::total                      900                       # Class of executed instruction
system.cpu01.pwrStateClkGateDist::samples            1                       # Distribution of time spent in the clock gated state
system.cpu01.pwrStateClkGateDist::mean      200173500                       # Distribution of time spent in the clock gated state
system.cpu01.pwrStateClkGateDist::1000-5e+10            1    100.00%    100.00% # Distribution of time spent in the clock gated state
system.cpu01.pwrStateClkGateDist::min_value    200173500                       # Distribution of time spent in the clock gated state
system.cpu01.pwrStateClkGateDist::max_value    200173500                       # Distribution of time spent in the clock gated state
system.cpu01.pwrStateClkGateDist::total             1                       # Distribution of time spent in the clock gated state
system.cpu01.pwrStateResidencyTicks::ON     669752500                       # Cumulative time (in ticks) in various power states
system.cpu01.pwrStateResidencyTicks::CLK_GATED    200173500                       # Cumulative time (in ticks) in various power states
system.cpu02.Branches                             189                       # Number of branches fetched
system.cpu02.committedInsts                       960                       # Number of instructions committed
system.cpu02.committedOps                         966                       # Number of ops (including micro ops) committed
system.cpu02.dtb.accesses                           0                       # DTB accesses
system.cpu02.dtb.hits                               0                       # DTB hits
system.cpu02.dtb.misses                             0                       # DTB misses
system.cpu02.dtb.pwrStateResidencyTicks::UNDEFINED    869926000                       # Cumulative time (in ticks) in various power states
system.cpu02.dtb.read_accesses                      0                       # DTB read accesses
system.cpu02.dtb.read_hits                          0                       # DTB read hits
system.cpu02.dtb.read_misses                        0                       # DTB read misses
system.cpu02.dtb.write_accesses                     0                       # DTB write accesses
system.cpu02.dtb.write_hits                         0                       # DTB write hits
system.cpu02.dtb.write_misses                       0                       # DTB write misses
system.cpu02.idle_fraction                   0.983480                       # Percentage of idle cycles
system.cpu02.itb.accesses                           0                       # DTB accesses
system.cpu02.itb.hits                               0                       # DTB hits
system.cpu02.itb.misses                             0                       # DTB misses
system.cpu02.itb.pwrStateResidencyTicks::UNDEFINED    869926000                       # Cumulative time (in ticks) in various power states
system.cpu02.itb.read_accesses                      0                       # DTB read accesses
system.cpu02.itb.read_hits                          0                       # DTB read hits
system.cpu02.itb.read_misses                        0                       # DTB read misses
system.cpu02.itb.write_accesses                     0                       # DTB write accesses
system.cpu02.itb.write_hits                         0                       # DTB write hits
system.cpu02.itb.write_misses                       0                       # DTB write misses
system.cpu02.not_idle_fraction               0.016520                       # Percentage of non-idle cycles
system.cpu02.numCycles                        1739582                       # number of cpu cycles simulated
system.cpu02.numPwrStateTransitions                 2                       # Number of power state transitions
system.cpu02.numWorkItemsCompleted                  0                       # number of work items this cpu completed
system.cpu02.numWorkItemsStarted                    0                       # number of work items this cpu started
system.cpu02.num_busy_cycles             28738.541467                       # Number of busy cycles
system.cpu02.num_conditional_control_insts           99                       # number of instructions that are conditional controls
system.cpu02.num_fp_alu_accesses                   12                       # Number of float alu accesses
system.cpu02.num_fp_insts                          12                       # number of float instructions
system.cpu02.num_fp_register_reads                 12                       # number of times the floating registers were read
system.cpu02.num_fp_register_writes                 0                       # number of times the floating registers were written
system.cpu02.num_func_calls                        90                       # number of times a function call or return occured
system.cpu02.num_idle_cycles             1710843.458533                       # Number of idle cycles
system.cpu02.num_int_alu_accesses                 944                       # Number of integer alu accesses
system.cpu02.num_int_insts                        944                       # number of integer instructions
system.cpu02.num_int_register_reads              1107                       # number of times the integer registers were read
system.cpu02.num_int_register_writes              653                       # number of times the integer registers were written
system.cpu02.num_load_insts                       214                       # Number of load instructions
system.cpu02.num_mem_refs                         378                       # number of memory refs
system.cpu02.num_store_insts                      164                       # Number of store instructions
system.cpu02.num_vec_alu_accesses                   0                       # Number of vector alu accesses
system.cpu02.num_vec_insts                          0                       # number of vector instructions
system.cpu02.num_vec_register_reads                 0                       # number of times the vector registers were read
system.cpu02.num_vec_register_writes                0                       # number of times the vector registers were written
system.cpu02.op_class::No_OpClass                  10      1.03%      1.03% # Class of executed instruction
system.cpu02.op_class::IntAlu                     577     59.61%     60.64% # Class of executed instruction
system.cpu02.op_class::IntMult                      1      0.10%     60.74% # Class of executed instruction
system.cpu02.op_class::IntDiv                       2      0.21%     60.95% # Class of executed instruction
system.cpu02.op_class::FloatAdd                     0      0.00%     60.95% # Class of executed instruction
system.cpu02.op_class::FloatCmp                     0      0.00%     60.95% # Class of executed instruction
system.cpu02.op_class::FloatCvt                     0      0.00%     60.95% # Class of executed instruction
system.cpu02.op_class::FloatMult                    0      0.00%     60.95% # Class of executed instruction
system.cpu02.op_class::FloatMultAcc                 0      0.00%     60.95% # Class of executed instruction
system.cpu02.op_class::FloatDiv                     0      0.00%     60.95% # Class of executed instruction
system.cpu02.op_class::FloatMisc                    0      0.00%     60.95% # Class of executed instruction
system.cpu02.op_class::FloatSqrt                    0      0.00%     60.95% # Class of executed instruction
system.cpu02.op_class::SimdAdd                      0      0.00%     60.95% # Class of executed instruction
system.cpu02.op_class::SimdAddAcc                   0      0.00%     60.95% # Class of executed instruction
system.cpu02.op_class::SimdAlu                      0      0.00%     60.95% # Class of executed instruction
system.cpu02.op_class::SimdCmp                      0      0.00%     60.95% # Class of executed instruction
system.cpu02.op_class::SimdCvt                      0      0.00%     60.95% # Class of executed instruction
system.cpu02.op_class::SimdMisc                     0      0.00%     60.95% # Class of executed instruction
system.cpu02.op_class::SimdMult                     0      0.00%     60.95% # Class of executed instruction
system.cpu02.op_class::SimdMultAcc                  0      0.00%     60.95% # Class of executed instruction
system.cpu02.op_class::SimdShift                    0      0.00%     60.95% # Class of executed instruction
system.cpu02.op_class::SimdShiftAcc                 0      0.00%     60.95% # Class of executed instruction
system.cpu02.op_class::SimdSqrt                     0      0.00%     60.95% # Class of executed instruction
system.cpu02.op_class::SimdFloatAdd                 0      0.00%     60.95% # Class of executed instruction
system.cpu02.op_class::SimdFloatAlu                 0      0.00%     60.95% # Class of executed instruction
system.cpu02.op_class::SimdFloatCmp                 0      0.00%     60.95% # Class of executed instruction
system.cpu02.op_class::SimdFloatCvt                 0      0.00%     60.95% # Class of executed instruction
system.cpu02.op_class::SimdFloatDiv                 0      0.00%     60.95% # Class of executed instruction
system.cpu02.op_class::SimdFloatMisc                0      0.00%     60.95% # Class of executed instruction
system.cpu02.op_class::SimdFloatMult                0      0.00%     60.95% # Class of executed instruction
system.cpu02.op_class::SimdFloatMultAcc             0      0.00%     60.95% # Class of executed instruction
system.cpu02.op_class::SimdFloatSqrt                0      0.00%     60.95% # Class of executed instruction
system.cpu02.op_class::SimdAes                      0      0.00%     60.95% # Class of executed instruction
system.cpu02.op_class::SimdAesMix                   0      0.00%     60.95% # Class of executed instruction
system.cpu02.op_class::SimdSha1Hash                 0      0.00%     60.95% # Class of executed instruction
system.cpu02.op_class::SimdSha1Hash2                0      0.00%     60.95% # Class of executed instruction
system.cpu02.op_class::SimdSha256Hash               0      0.00%     60.95% # Class of executed instruction
system.cpu02.op_class::SimdSha256Hash2              0      0.00%     60.95% # Class of executed instruction
system.cpu02.op_class::SimdShaSigma2                0      0.00%     60.95% # Class of executed instruction
system.cpu02.op_class::SimdShaSigma3                0      0.00%     60.95% # Class of executed instruction
system.cpu02.op_class::MemRead                    218     22.52%     83.47% # Class of executed instruction
system.cpu02.op_class::MemWrite                   148     15.29%     98.76% # Class of executed instruction
system.cpu02.op_class::FloatMemRead                 0      0.00%     98.76% # Class of executed instruction
system.cpu02.op_class::FloatMemWrite               12      1.24%    100.00% # Class of executed instruction
system.cpu02.op_class::IprAccess                    0      0.00%    100.00% # Class of executed instruction
system.cpu02.op_class::InstPrefetch                 0      0.00%    100.00% # Class of executed instruction
system.cpu02.op_class::total                      968                       # Class of executed instruction
system.cpu02.pwrStateClkGateDist::samples            1                       # Distribution of time spent in the clock gated state
system.cpu02.pwrStateClkGateDist::mean      187787000                       # Distribution of time spent in the clock gated state
system.cpu02.pwrStateClkGateDist::1000-5e+10            1    100.00%    100.00% # Distribution of time spent in the clock gated state
system.cpu02.pwrStateClkGateDist::min_value    187787000                       # Distribution of time spent in the clock gated state
system.cpu02.pwrStateClkGateDist::max_value    187787000                       # Distribution of time spent in the clock gated state
system.cpu02.pwrStateClkGateDist::total             1                       # Distribution of time spent in the clock gated state
system.cpu02.pwrStateResidencyTicks::ON     682139000                       # Cumulative time (in ticks) in various power states
system.cpu02.pwrStateResidencyTicks::CLK_GATED    187787000                       # Cumulative time (in ticks) in various power states
system.cpu03.Branches                             192                       # Number of branches fetched
system.cpu03.committedInsts                       972                       # Number of instructions committed
system.cpu03.committedOps                         978                       # Number of ops (including micro ops) committed
system.cpu03.dtb.accesses                           0                       # DTB accesses
system.cpu03.dtb.hits                               0                       # DTB hits
system.cpu03.dtb.misses                             0                       # DTB misses
system.cpu03.dtb.pwrStateResidencyTicks::UNDEFINED    869926000                       # Cumulative time (in ticks) in various power states
system.cpu03.dtb.read_accesses                      0                       # DTB read accesses
system.cpu03.dtb.read_hits                          0                       # DTB read hits
system.cpu03.dtb.read_misses                        0                       # DTB read misses
system.cpu03.dtb.write_accesses                     0                       # DTB write accesses
system.cpu03.dtb.write_hits                         0                       # DTB write hits
system.cpu03.dtb.write_misses                       0                       # DTB write misses
system.cpu03.idle_fraction                   0.982960                       # Percentage of idle cycles
system.cpu03.itb.accesses                           0                       # DTB accesses
system.cpu03.itb.hits                               0                       # DTB hits
system.cpu03.itb.misses                             0                       # DTB misses
system.cpu03.itb.pwrStateResidencyTicks::UNDEFINED    869926000                       # Cumulative time (in ticks) in various power states
system.cpu03.itb.read_accesses                      0                       # DTB read accesses
system.cpu03.itb.read_hits                          0                       # DTB read hits
system.cpu03.itb.read_misses                        0                       # DTB read misses
system.cpu03.itb.write_accesses                     0                       # DTB write accesses
system.cpu03.itb.write_hits                         0                       # DTB write hits
system.cpu03.itb.write_misses                       0                       # DTB write misses
system.cpu03.not_idle_fraction               0.017040                       # Percentage of non-idle cycles
system.cpu03.numCycles                        1739623                       # number of cpu cycles simulated
system.cpu03.numPwrStateTransitions                 2                       # Number of power state transitions
system.cpu03.numWorkItemsCompleted                  0                       # number of work items this cpu completed
system.cpu03.numWorkItemsStarted                    0                       # number of work items this cpu started
system.cpu03.num_busy_cycles             29643.099816                       # Number of busy cycles
system.cpu03.num_conditional_control_insts           99                       # number of instructions that are conditional controls
system.cpu03.num_fp_alu_accesses                   12                       # Number of float alu accesses
system.cpu03.num_fp_insts                          12                       # number of float instructions
system.cpu03.num_fp_register_reads                 12                       # number of times the floating registers were read
system.cpu03.num_fp_register_writes                 0                       # number of times the floating registers were written
system.cpu03.num_func_calls                        93                       # number of times a function call or return occured
system.cpu03.num_idle_cycles             1709979.900184                       # Number of idle cycles
system.cpu03.num_int_alu_accesses                 954                       # Number of integer alu accesses
system.cpu03.num_int_insts                        954                       # number of integer instructions
system.cpu03.num_int_register_reads              1119                       # number of times the integer registers were read
system.cpu03.num_int_register_writes              661                       # number of times the integer registers were written
system.cpu03.num_load_insts                       217                       # Number of load instructions
system.cpu03.num_mem_refs                         382                       # number of memory refs
system.cpu03.num_store_insts                      165                       # Number of store instructions
system.cpu03.num_vec_alu_accesses                   0                       # Number of vector alu accesses
system.cpu03.num_vec_insts                          0                       # number of vector instructions
system.cpu03.num_vec_register_reads                 0                       # number of times the vector registers were read
system.cpu03.num_vec_register_writes                0                       # number of times the vector registers were written
system.cpu03.op_class::No_OpClass                  10      1.02%      1.02% # Class of executed instruction
system.cpu03.op_class::IntAlu                     585     59.69%     60.71% # Class of executed instruction
system.cpu03.op_class::IntMult                      1      0.10%     60.82% # Class of executed instruction
system.cpu03.op_class::IntDiv                       2      0.20%     61.02% # Class of executed instruction
system.cpu03.op_class::FloatAdd                     0      0.00%     61.02% # Class of executed instruction
system.cpu03.op_class::FloatCmp                     0      0.00%     61.02% # Class of executed instruction
system.cpu03.op_class::FloatCvt                     0      0.00%     61.02% # Class of executed instruction
system.cpu03.op_class::FloatMult                    0      0.00%     61.02% # Class of executed instruction
system.cpu03.op_class::FloatMultAcc                 0      0.00%     61.02% # Class of executed instruction
system.cpu03.op_class::FloatDiv                     0      0.00%     61.02% # Class of executed instruction
system.cpu03.op_class::FloatMisc                    0      0.00%     61.02% # Class of executed instruction
system.cpu03.op_class::FloatSqrt                    0      0.00%     61.02% # Class of executed instruction
system.cpu03.op_class::SimdAdd                      0      0.00%     61.02% # Class of executed instruction
system.cpu03.op_class::SimdAddAcc                   0      0.00%     61.02% # Class of executed instruction
system.cpu03.op_class::SimdAlu                      0      0.00%     61.02% # Class of executed instruction
system.cpu03.op_class::SimdCmp                      0      0.00%     61.02% # Class of executed instruction
system.cpu03.op_class::SimdCvt                      0      0.00%     61.02% # Class of executed instruction
system.cpu03.op_class::SimdMisc                     0      0.00%     61.02% # Class of executed instruction
system.cpu03.op_class::SimdMult                     0      0.00%     61.02% # Class of executed instruction
system.cpu03.op_class::SimdMultAcc                  0      0.00%     61.02% # Class of executed instruction
system.cpu03.op_class::SimdShift                    0      0.00%     61.02% # Class of executed instruction
system.cpu03.op_class::SimdShiftAcc                 0      0.00%     61.02% # Class of executed instruction
system.cpu03.op_class::SimdSqrt                     0      0.00%     61.02% # Class of executed instruction
system.cpu03.op_class::SimdFloatAdd                 0      0.00%     61.02% # Class of executed instruction
system.cpu03.op_class::SimdFloatAlu                 0      0.00%     61.02% # Class of executed instruction
system.cpu03.op_class::SimdFloatCmp                 0      0.00%     61.02% # Class of executed instruction
system.cpu03.op_class::SimdFloatCvt                 0      0.00%     61.02% # Class of executed instruction
system.cpu03.op_class::SimdFloatDiv                 0      0.00%     61.02% # Class of executed instruction
system.cpu03.op_class::SimdFloatMisc                0      0.00%     61.02% # Class of executed instruction
system.cpu03.op_class::SimdFloatMult                0      0.00%     61.02% # Class of executed instruction
system.cpu03.op_class::SimdFloatMultAcc             0      0.00%     61.02% # Class of executed instruction
system.cpu03.op_class::SimdFloatSqrt                0      0.00%     61.02% # Class of executed instruction
system.cpu03.op_class::SimdAes                      0      0.00%     61.02% # Class of executed instruction
system.cpu03.op_class::SimdAesMix                   0      0.00%     61.02% # Class of executed instruction
system.cpu03.op_class::SimdSha1Hash                 0      0.00%     61.02% # Class of executed instruction
system.cpu03.op_class::SimdSha1Hash2                0      0.00%     61.02% # Class of executed instruction
system.cpu03.op_class::SimdSha256Hash               0      0.00%     61.02% # Class of executed instruction
system.cpu03.op_class::SimdSha256Hash2              0      0.00%     61.02% # Class of executed instruction
system.cpu03.op_class::SimdShaSigma2                0      0.00%     61.02% # Class of executed instruction
system.cpu03.op_class::SimdShaSigma3                0      0.00%     61.02% # Class of executed instruction
system.cpu03.op_class::MemRead                    221     22.55%     83.57% # Class of executed instruction
system.cpu03.op_class::MemWrite                   149     15.20%     98.78% # Class of executed instruction
system.cpu03.op_class::FloatMemRead                 0      0.00%     98.78% # Class of executed instruction
system.cpu03.op_class::FloatMemWrite               12      1.22%    100.00% # Class of executed instruction
system.cpu03.op_class::IprAccess                    0      0.00%    100.00% # Class of executed instruction
system.cpu03.op_class::InstPrefetch                 0      0.00%    100.00% # Class of executed instruction
system.cpu03.op_class::total                      980                       # Class of executed instruction
system.cpu03.pwrStateClkGateDist::samples            1                       # Distribution of time spent in the clock gated state
system.cpu03.pwrStateClkGateDist::mean      172433000                       # Distribution of time spent in the clock gated state
system.cpu03.pwrStateClkGateDist::1000-5e+10            1    100.00%    100.00% # Distribution of time spent in the clock gated state
system.cpu03.pwrStateClkGateDist::min_value    172433000                       # Distribution of time spent in the clock gated state
system.cpu03.pwrStateClkGateDist::max_value    172433000                       # Distribution of time spent in the clock gated state
system.cpu03.pwrStateClkGateDist::total             1                       # Distribution of time spent in the clock gated state
system.cpu03.pwrStateResidencyTicks::ON     697493000                       # Cumulative time (in ticks) in various power states
system.cpu03.pwrStateResidencyTicks::CLK_GATED    172433000                       # Cumulative time (in ticks) in various power states
system.cpu04.Branches                             187                       # Number of branches fetched
system.cpu04.committedInsts                       944                       # Number of instructions committed
system.cpu04.committedOps                         950                       # Number of ops (including micro ops) committed
system.cpu04.dtb.accesses                           0                       # DTB accesses
system.cpu04.dtb.hits                               0                       # DTB hits
system.cpu04.dtb.misses                             0                       # DTB misses
system.cpu04.dtb.pwrStateResidencyTicks::UNDEFINED    869926000                       # Cumulative time (in ticks) in various power states
system.cpu04.dtb.read_accesses                      0                       # DTB read accesses
system.cpu04.dtb.read_hits                          0                       # DTB read hits
system.cpu04.dtb.read_misses                        0                       # DTB read misses
system.cpu04.dtb.write_accesses                     0                       # DTB write accesses
system.cpu04.dtb.write_hits                         0                       # DTB write hits
system.cpu04.dtb.write_misses                       0                       # DTB write misses
system.cpu04.idle_fraction                   0.983035                       # Percentage of idle cycles
system.cpu04.itb.accesses                           0                       # DTB accesses
system.cpu04.itb.hits                               0                       # DTB hits
system.cpu04.itb.misses                             0                       # DTB misses
system.cpu04.itb.pwrStateResidencyTicks::UNDEFINED    869926000                       # Cumulative time (in ticks) in various power states
system.cpu04.itb.read_accesses                      0                       # DTB read accesses
system.cpu04.itb.read_hits                          0                       # DTB read hits
system.cpu04.itb.read_misses                        0                       # DTB read misses
system.cpu04.itb.write_accesses                     0                       # DTB write accesses
system.cpu04.itb.write_hits                         0                       # DTB write hits
system.cpu04.itb.write_misses                       0                       # DTB write misses
system.cpu04.not_idle_fraction               0.016965                       # Percentage of non-idle cycles
system.cpu04.numCycles                        1739797                       # number of cpu cycles simulated
system.cpu04.numPwrStateTransitions                 2                       # Number of power state transitions
system.cpu04.numWorkItemsCompleted                  0                       # number of work items this cpu completed
system.cpu04.numWorkItemsStarted                    0                       # number of work items this cpu started
system.cpu04.num_busy_cycles             29516.068878                       # Number of busy cycles
system.cpu04.num_conditional_control_insts           96                       # number of instructions that are conditional controls
system.cpu04.num_fp_alu_accesses                   12                       # Number of float alu accesses
system.cpu04.num_fp_insts                          12                       # number of float instructions
system.cpu04.num_fp_register_reads                 12                       # number of times the floating registers were read
system.cpu04.num_fp_register_writes                 0                       # number of times the floating registers were written
system.cpu04.num_func_calls                        91                       # number of times a function call or return occured
system.cpu04.num_idle_cycles             1710280.931122                       # Number of idle cycles
system.cpu04.num_int_alu_accesses                 926                       # Number of integer alu accesses
system.cpu04.num_int_insts                        926                       # number of integer instructions
system.cpu04.num_int_register_reads              1087                       # number of times the integer registers were read
system.cpu04.num_int_register_writes              640                       # number of times the integer registers were written
system.cpu04.num_load_insts                       210                       # Number of load instructions
system.cpu04.num_mem_refs                         372                       # number of memory refs
system.cpu04.num_store_insts                      162                       # Number of store instructions
system.cpu04.num_vec_alu_accesses                   0                       # Number of vector alu accesses
system.cpu04.num_vec_insts                          0                       # number of vector instructions
system.cpu04.num_vec_register_reads                 0                       # number of times the vector registers were read
system.cpu04.num_vec_register_writes                0                       # number of times the vector registers were written
system.cpu04.op_class::No_OpClass                  10      1.05%      1.05% # Class of executed instruction
system.cpu04.op_class::IntAlu                     567     59.56%     60.61% # Class of executed instruction
system.cpu04.op_class::IntMult                      1      0.11%     60.71% # Class of executed instruction
system.cpu04.op_class::IntDiv                       2      0.21%     60.92% # Class of executed instruction
system.cpu04.op_class::FloatAdd                     0      0.00%     60.92% # Class of executed instruction
system.cpu04.op_class::FloatCmp                     0      0.00%     60.92% # Class of executed instruction
system.cpu04.op_class::FloatCvt                     0      0.00%     60.92% # Class of executed instruction
system.cpu04.op_class::FloatMult                    0      0.00%     60.92% # Class of executed instruction
system.cpu04.op_class::FloatMultAcc                 0      0.00%     60.92% # Class of executed instruction
system.cpu04.op_class::FloatDiv                     0      0.00%     60.92% # Class of executed instruction
system.cpu04.op_class::FloatMisc                    0      0.00%     60.92% # Class of executed instruction
system.cpu04.op_class::FloatSqrt                    0      0.00%     60.92% # Class of executed instruction
system.cpu04.op_class::SimdAdd                      0      0.00%     60.92% # Class of executed instruction
system.cpu04.op_class::SimdAddAcc                   0      0.00%     60.92% # Class of executed instruction
system.cpu04.op_class::SimdAlu                      0      0.00%     60.92% # Class of executed instruction
system.cpu04.op_class::SimdCmp                      0      0.00%     60.92% # Class of executed instruction
system.cpu04.op_class::SimdCvt                      0      0.00%     60.92% # Class of executed instruction
system.cpu04.op_class::SimdMisc                     0      0.00%     60.92% # Class of executed instruction
system.cpu04.op_class::SimdMult                     0      0.00%     60.92% # Class of executed instruction
system.cpu04.op_class::SimdMultAcc                  0      0.00%     60.92% # Class of executed instruction
system.cpu04.op_class::SimdShift                    0      0.00%     60.92% # Class of executed instruction
system.cpu04.op_class::SimdShiftAcc                 0      0.00%     60.92% # Class of executed instruction
system.cpu04.op_class::SimdSqrt                     0      0.00%     60.92% # Class of executed instruction
system.cpu04.op_class::SimdFloatAdd                 0      0.00%     60.92% # Class of executed instruction
system.cpu04.op_class::SimdFloatAlu                 0      0.00%     60.92% # Class of executed instruction
system.cpu04.op_class::SimdFloatCmp                 0      0.00%     60.92% # Class of executed instruction
system.cpu04.op_class::SimdFloatCvt                 0      0.00%     60.92% # Class of executed instruction
system.cpu04.op_class::SimdFloatDiv                 0      0.00%     60.92% # Class of executed instruction
system.cpu04.op_class::SimdFloatMisc                0      0.00%     60.92% # Class of executed instruction
system.cpu04.op_class::SimdFloatMult                0      0.00%     60.92% # Class of executed instruction
system.cpu04.op_class::SimdFloatMultAcc             0      0.00%     60.92% # Class of executed instruction
system.cpu04.op_class::SimdFloatSqrt                0      0.00%     60.92% # Class of executed instruction
system.cpu04.op_class::SimdAes                      0      0.00%     60.92% # Class of executed instruction
system.cpu04.op_class::SimdAesMix                   0      0.00%     60.92% # Class of executed instruction
system.cpu04.op_class::SimdSha1Hash                 0      0.00%     60.92% # Class of executed instruction
system.cpu04.op_class::SimdSha1Hash2                0      0.00%     60.92% # Class of executed instruction
system.cpu04.op_class::SimdSha256Hash               0      0.00%     60.92% # Class of executed instruction
system.cpu04.op_class::SimdSha256Hash2              0      0.00%     60.92% # Class of executed instruction
system.cpu04.op_class::SimdShaSigma2                0      0.00%     60.92% # Class of executed instruction
system.cpu04.op_class::SimdShaSigma3                0      0.00%     60.92% # Class of executed instruction
system.cpu04.op_class::MemRead                    214     22.48%     83.40% # Class of executed instruction
system.cpu04.op_class::MemWrite                   146     15.34%     98.74% # Class of executed instruction
system.cpu04.op_class::FloatMemRead                 0      0.00%     98.74% # Class of executed instruction
system.cpu04.op_class::FloatMemWrite               12      1.26%    100.00% # Class of executed instruction
system.cpu04.op_class::IprAccess                    0      0.00%    100.00% # Class of executed instruction
system.cpu04.op_class::InstPrefetch                 0      0.00%    100.00% # Class of executed instruction
system.cpu04.op_class::total                      952                       # Class of executed instruction
system.cpu04.pwrStateClkGateDist::samples            1                       # Distribution of time spent in the clock gated state
system.cpu04.pwrStateClkGateDist::mean      158184500                       # Distribution of time spent in the clock gated state
system.cpu04.pwrStateClkGateDist::1000-5e+10            1    100.00%    100.00% # Distribution of time spent in the clock gated state
system.cpu04.pwrStateClkGateDist::min_value    158184500                       # Distribution of time spent in the clock gated state
system.cpu04.pwrStateClkGateDist::max_value    158184500                       # Distribution of time spent in the clock gated state
system.cpu04.pwrStateClkGateDist::total             1                       # Distribution of time spent in the clock gated state
system.cpu04.pwrStateResidencyTicks::ON     711741500                       # Cumulative time (in ticks) in various power states
system.cpu04.pwrStateResidencyTicks::CLK_GATED    158184500                       # Cumulative time (in ticks) in various power states
system.cpu05.Branches                             187                       # Number of branches fetched
system.cpu05.committedInsts                       948                       # Number of instructions committed
system.cpu05.committedOps                         954                       # Number of ops (including micro ops) committed
system.cpu05.dtb.accesses                           0                       # DTB accesses
system.cpu05.dtb.hits                               0                       # DTB hits
system.cpu05.dtb.misses                             0                       # DTB misses
system.cpu05.dtb.pwrStateResidencyTicks::UNDEFINED    869926000                       # Cumulative time (in ticks) in various power states
system.cpu05.dtb.read_accesses                      0                       # DTB read accesses
system.cpu05.dtb.read_hits                          0                       # DTB read hits
system.cpu05.dtb.read_misses                        0                       # DTB read misses
system.cpu05.dtb.write_accesses                     0                       # DTB write accesses
system.cpu05.dtb.write_hits                         0                       # DTB write hits
system.cpu05.dtb.write_misses                       0                       # DTB write misses
system.cpu05.idle_fraction                   0.983292                       # Percentage of idle cycles
system.cpu05.itb.accesses                           0                       # DTB accesses
system.cpu05.itb.hits                               0                       # DTB hits
system.cpu05.itb.misses                             0                       # DTB misses
system.cpu05.itb.pwrStateResidencyTicks::UNDEFINED    869926000                       # Cumulative time (in ticks) in various power states
system.cpu05.itb.read_accesses                      0                       # DTB read accesses
system.cpu05.itb.read_hits                          0                       # DTB read hits
system.cpu05.itb.read_misses                        0                       # DTB read misses
system.cpu05.itb.write_accesses                     0                       # DTB write accesses
system.cpu05.itb.write_hits                         0                       # DTB write hits
system.cpu05.itb.write_misses                       0                       # DTB write misses
system.cpu05.not_idle_fraction               0.016708                       # Percentage of non-idle cycles
system.cpu05.numCycles                        1739771                       # number of cpu cycles simulated
system.cpu05.numPwrStateTransitions                 2                       # Number of power state transitions
system.cpu05.numWorkItemsCompleted                  0                       # number of work items this cpu completed
system.cpu05.numWorkItemsStarted                    0                       # number of work items this cpu started
system.cpu05.num_busy_cycles             29068.648593                       # Number of busy cycles
system.cpu05.num_conditional_control_insts           98                       # number of instructions that are conditional controls
system.cpu05.num_fp_alu_accesses                   12                       # Number of float alu accesses
system.cpu05.num_fp_insts                          12                       # number of float instructions
system.cpu05.num_fp_register_reads                 12                       # number of times the floating registers were read
system.cpu05.num_fp_register_writes                 0                       # number of times the floating registers were written
system.cpu05.num_func_calls                        89                       # number of times a function call or return occured
system.cpu05.num_idle_cycles             1710702.351407                       # Number of idle cycles
system.cpu05.num_int_alu_accesses                 932                       # Number of integer alu accesses
system.cpu05.num_int_insts                        932                       # number of integer instructions
system.cpu05.num_int_register_reads              1092                       # number of times the integer registers were read
system.cpu05.num_int_register_writes              643                       # number of times the integer registers were written
system.cpu05.num_load_insts                       209                       # Number of load instructions
system.cpu05.num_mem_refs                         372                       # number of memory refs
system.cpu05.num_store_insts                      163                       # Number of store instructions
system.cpu05.num_vec_alu_accesses                   0                       # Number of vector alu accesses
system.cpu05.num_vec_insts                          0                       # number of vector instructions
system.cpu05.num_vec_register_reads                 0                       # number of times the vector registers were read
system.cpu05.num_vec_register_writes                0                       # number of times the vector registers were written
system.cpu05.op_class::No_OpClass                  10      1.05%      1.05% # Class of executed instruction
system.cpu05.op_class::IntAlu                     571     59.73%     60.77% # Class of executed instruction
system.cpu05.op_class::IntMult                      1      0.10%     60.88% # Class of executed instruction
system.cpu05.op_class::IntDiv                       2      0.21%     61.09% # Class of executed instruction
system.cpu05.op_class::FloatAdd                     0      0.00%     61.09% # Class of executed instruction
system.cpu05.op_class::FloatCmp                     0      0.00%     61.09% # Class of executed instruction
system.cpu05.op_class::FloatCvt                     0      0.00%     61.09% # Class of executed instruction
system.cpu05.op_class::FloatMult                    0      0.00%     61.09% # Class of executed instruction
system.cpu05.op_class::FloatMultAcc                 0      0.00%     61.09% # Class of executed instruction
system.cpu05.op_class::FloatDiv                     0      0.00%     61.09% # Class of executed instruction
system.cpu05.op_class::FloatMisc                    0      0.00%     61.09% # Class of executed instruction
system.cpu05.op_class::FloatSqrt                    0      0.00%     61.09% # Class of executed instruction
system.cpu05.op_class::SimdAdd                      0      0.00%     61.09% # Class of executed instruction
system.cpu05.op_class::SimdAddAcc                   0      0.00%     61.09% # Class of executed instruction
system.cpu05.op_class::SimdAlu                      0      0.00%     61.09% # Class of executed instruction
system.cpu05.op_class::SimdCmp                      0      0.00%     61.09% # Class of executed instruction
system.cpu05.op_class::SimdCvt                      0      0.00%     61.09% # Class of executed instruction
system.cpu05.op_class::SimdMisc                     0      0.00%     61.09% # Class of executed instruction
system.cpu05.op_class::SimdMult                     0      0.00%     61.09% # Class of executed instruction
system.cpu05.op_class::SimdMultAcc                  0      0.00%     61.09% # Class of executed instruction
system.cpu05.op_class::SimdShift                    0      0.00%     61.09% # Class of executed instruction
system.cpu05.op_class::SimdShiftAcc                 0      0.00%     61.09% # Class of executed instruction
system.cpu05.op_class::SimdSqrt                     0      0.00%     61.09% # Class of executed instruction
system.cpu05.op_class::SimdFloatAdd                 0      0.00%     61.09% # Class of executed instruction
system.cpu05.op_class::SimdFloatAlu                 0      0.00%     61.09% # Class of executed instruction
system.cpu05.op_class::SimdFloatCmp                 0      0.00%     61.09% # Class of executed instruction
system.cpu05.op_class::SimdFloatCvt                 0      0.00%     61.09% # Class of executed instruction
system.cpu05.op_class::SimdFloatDiv                 0      0.00%     61.09% # Class of executed instruction
system.cpu05.op_class::SimdFloatMisc                0      0.00%     61.09% # Class of executed instruction
system.cpu05.op_class::SimdFloatMult                0      0.00%     61.09% # Class of executed instruction
system.cpu05.op_class::SimdFloatMultAcc             0      0.00%     61.09% # Class of executed instruction
system.cpu05.op_class::SimdFloatSqrt                0      0.00%     61.09% # Class of executed instruction
system.cpu05.op_class::SimdAes                      0      0.00%     61.09% # Class of executed instruction
system.cpu05.op_class::SimdAesMix                   0      0.00%     61.09% # Class of executed instruction
system.cpu05.op_class::SimdSha1Hash                 0      0.00%     61.09% # Class of executed instruction
system.cpu05.op_class::SimdSha1Hash2                0      0.00%     61.09% # Class of executed instruction
system.cpu05.op_class::SimdSha256Hash               0      0.00%     61.09% # Class of executed instruction
system.cpu05.op_class::SimdSha256Hash2              0      0.00%     61.09% # Class of executed instruction
system.cpu05.op_class::SimdShaSigma2                0      0.00%     61.09% # Class of executed instruction
system.cpu05.op_class::SimdShaSigma3                0      0.00%     61.09% # Class of executed instruction
system.cpu05.op_class::MemRead                    213     22.28%     83.37% # Class of executed instruction
system.cpu05.op_class::MemWrite                   147     15.38%     98.74% # Class of executed instruction
system.cpu05.op_class::FloatMemRead                 0      0.00%     98.74% # Class of executed instruction
system.cpu05.op_class::FloatMemWrite               12      1.26%    100.00% # Class of executed instruction
system.cpu05.op_class::IprAccess                    0      0.00%    100.00% # Class of executed instruction
system.cpu05.op_class::InstPrefetch                 0      0.00%    100.00% # Class of executed instruction
system.cpu05.op_class::total                      956                       # Class of executed instruction
system.cpu05.pwrStateClkGateDist::samples            1                       # Distribution of time spent in the clock gated state
system.cpu05.pwrStateClkGateDist::mean      144225000                       # Distribution of time spent in the clock gated state
system.cpu05.pwrStateClkGateDist::1000-5e+10            1    100.00%    100.00% # Distribution of time spent in the clock gated state
system.cpu05.pwrStateClkGateDist::min_value    144225000                       # Distribution of time spent in the clock gated state
system.cpu05.pwrStateClkGateDist::max_value    144225000                       # Distribution of time spent in the clock gated state
system.cpu05.pwrStateClkGateDist::total             1                       # Distribution of time spent in the clock gated state
system.cpu05.pwrStateResidencyTicks::ON     725701000                       # Cumulative time (in ticks) in various power states
system.cpu05.pwrStateResidencyTicks::CLK_GATED    144225000                       # Cumulative time (in ticks) in various power states
system.cpu06.Branches                             190                       # Number of branches fetched
system.cpu06.committedInsts                       960                       # Number of instructions committed
system.cpu06.committedOps                         966                       # Number of ops (including micro ops) committed
system.cpu06.dtb.accesses                           0                       # DTB accesses
system.cpu06.dtb.hits                               0                       # DTB hits
system.cpu06.dtb.misses                             0                       # DTB misses
system.cpu06.dtb.pwrStateResidencyTicks::UNDEFINED    869926000                       # Cumulative time (in ticks) in various power states
system.cpu06.dtb.read_accesses                      0                       # DTB read accesses
system.cpu06.dtb.read_hits                          0                       # DTB read hits
system.cpu06.dtb.read_misses                        0                       # DTB read misses
system.cpu06.dtb.write_accesses                     0                       # DTB write accesses
system.cpu06.dtb.write_hits                         0                       # DTB write hits
system.cpu06.dtb.write_misses                       0                       # DTB write misses
system.cpu06.idle_fraction                   0.982885                       # Percentage of idle cycles
system.cpu06.itb.accesses                           0                       # DTB accesses
system.cpu06.itb.hits                               0                       # DTB hits
system.cpu06.itb.misses                             0                       # DTB misses
system.cpu06.itb.pwrStateResidencyTicks::UNDEFINED    869926000                       # Cumulative time (in ticks) in various power states
system.cpu06.itb.read_accesses                      0                       # DTB read accesses
system.cpu06.itb.read_hits                          0                       # DTB read hits
system.cpu06.itb.read_misses                        0                       # DTB read misses
system.cpu06.itb.write_accesses                     0                       # DTB write accesses
system.cpu06.itb.write_hits                         0                       # DTB write hits
system.cpu06.itb.write_misses                       0                       # DTB write misses
system.cpu06.not_idle_fraction               0.017115                       # Percentage of non-idle cycles
system.cpu06.numCycles                        1739801                       # number of cpu cycles simulated
system.cpu06.numPwrStateTransitions                 2                       # Number of power state transitions
system.cpu06.numWorkItemsCompleted                  0                       # number of work items this cpu completed
system.cpu06.numWorkItemsStarted                    0                       # number of work items this cpu started
system.cpu06.num_busy_cycles             29777.129088                       # Number of busy cycles
system.cpu06.num_conditional_control_insts           98                       # number of instructions that are conditional controls
system.cpu06.num_fp_alu_accesses                   12                       # Number of float alu accesses
system.cpu06.num_fp_insts                          12                       # number of float instructions
system.cpu06.num_fp_register_reads                 12                       # number of times the floating registers were read
system.cpu06.num_fp_register_writes                 0                       # number of times the floating registers were written
system.cpu06.num_func_calls                        92                       # number of times a function call or return occured
system.cpu06.num_idle_cycles             1710023.870912                       # Number of idle cycles
system.cpu06.num_int_alu_accesses                 942                       # Number of integer alu accesses
system.cpu06.num_int_insts                        942                       # number of integer instructions
system.cpu06.num_int_register_reads              1104                       # number of times the integer registers were read
system.cpu06.num_int_register_writes              651                       # number of times the integer registers were written
system.cpu06.num_load_insts                       212                       # Number of load instructions
system.cpu06.num_mem_refs                         376                       # number of memory refs
system.cpu06.num_store_insts                      164                       # Number of store instructions
system.cpu06.num_vec_alu_accesses                   0                       # Number of vector alu accesses
system.cpu06.num_vec_insts                          0                       # number of vector instructions
system.cpu06.num_vec_register_reads                 0                       # number of times the vector registers were read
system.cpu06.num_vec_register_writes                0                       # number of times the vector registers were written
system.cpu06.op_class::No_OpClass                  10      1.03%      1.03% # Class of executed instruction
system.cpu06.op_class::IntAlu                     579     59.81%     60.85% # Class of executed instruction
system.cpu06.op_class::IntMult                      1      0.10%     60.95% # Class of executed instruction
system.cpu06.op_class::IntDiv                       2      0.21%     61.16% # Class of executed instruction
system.cpu06.op_class::FloatAdd                     0      0.00%     61.16% # Class of executed instruction
system.cpu06.op_class::FloatCmp                     0      0.00%     61.16% # Class of executed instruction
system.cpu06.op_class::FloatCvt                     0      0.00%     61.16% # Class of executed instruction
system.cpu06.op_class::FloatMult                    0      0.00%     61.16% # Class of executed instruction
system.cpu06.op_class::FloatMultAcc                 0      0.00%     61.16% # Class of executed instruction
system.cpu06.op_class::FloatDiv                     0      0.00%     61.16% # Class of executed instruction
system.cpu06.op_class::FloatMisc                    0      0.00%     61.16% # Class of executed instruction
system.cpu06.op_class::FloatSqrt                    0      0.00%     61.16% # Class of executed instruction
system.cpu06.op_class::SimdAdd                      0      0.00%     61.16% # Class of executed instruction
system.cpu06.op_class::SimdAddAcc                   0      0.00%     61.16% # Class of executed instruction
system.cpu06.op_class::SimdAlu                      0      0.00%     61.16% # Class of executed instruction
system.cpu06.op_class::SimdCmp                      0      0.00%     61.16% # Class of executed instruction
system.cpu06.op_class::SimdCvt                      0      0.00%     61.16% # Class of executed instruction
system.cpu06.op_class::SimdMisc                     0      0.00%     61.16% # Class of executed instruction
system.cpu06.op_class::SimdMult                     0      0.00%     61.16% # Class of executed instruction
system.cpu06.op_class::SimdMultAcc                  0      0.00%     61.16% # Class of executed instruction
system.cpu06.op_class::SimdShift                    0      0.00%     61.16% # Class of executed instruction
system.cpu06.op_class::SimdShiftAcc                 0      0.00%     61.16% # Class of executed instruction
system.cpu06.op_class::SimdSqrt                     0      0.00%     61.16% # Class of executed instruction
system.cpu06.op_class::SimdFloatAdd                 0      0.00%     61.16% # Class of executed instruction
system.cpu06.op_class::SimdFloatAlu                 0      0.00%     61.16% # Class of executed instruction
system.cpu06.op_class::SimdFloatCmp                 0      0.00%     61.16% # Class of executed instruction
system.cpu06.op_class::SimdFloatCvt                 0      0.00%     61.16% # Class of executed instruction
system.cpu06.op_class::SimdFloatDiv                 0      0.00%     61.16% # Class of executed instruction
system.cpu06.op_class::SimdFloatMisc                0      0.00%     61.16% # Class of executed instruction
system.cpu06.op_class::SimdFloatMult                0      0.00%     61.16% # Class of executed instruction
system.cpu06.op_class::SimdFloatMultAcc             0      0.00%     61.16% # Class of executed instruction
system.cpu06.op_class::SimdFloatSqrt                0      0.00%     61.16% # Class of executed instruction
system.cpu06.op_class::SimdAes                      0      0.00%     61.16% # Class of executed instruction
system.cpu06.op_class::SimdAesMix                   0      0.00%     61.16% # Class of executed instruction
system.cpu06.op_class::SimdSha1Hash                 0      0.00%     61.16% # Class of executed instruction
system.cpu06.op_class::SimdSha1Hash2                0      0.00%     61.16% # Class of executed instruction
system.cpu06.op_class::SimdSha256Hash               0      0.00%     61.16% # Class of executed instruction
system.cpu06.op_class::SimdSha256Hash2              0      0.00%     61.16% # Class of executed instruction
system.cpu06.op_class::SimdShaSigma2                0      0.00%     61.16% # Class of executed instruction
system.cpu06.op_class::SimdShaSigma3                0      0.00%     61.16% # Class of executed instruction
system.cpu06.op_class::MemRead                    216     22.31%     83.47% # Class of executed instruction
system.cpu06.op_class::MemWrite                   148     15.29%     98.76% # Class of executed instruction
system.cpu06.op_class::FloatMemRead                 0      0.00%     98.76% # Class of executed instruction
system.cpu06.op_class::FloatMemWrite               12      1.24%    100.00% # Class of executed instruction
system.cpu06.op_class::IprAccess                    0      0.00%    100.00% # Class of executed instruction
system.cpu06.op_class::InstPrefetch                 0      0.00%    100.00% # Class of executed instruction
system.cpu06.op_class::total                      968                       # Class of executed instruction
system.cpu06.pwrStateClkGateDist::samples            1                       # Distribution of time spent in the clock gated state
system.cpu06.pwrStateClkGateDist::mean      129214000                       # Distribution of time spent in the clock gated state
system.cpu06.pwrStateClkGateDist::1000-5e+10            1    100.00%    100.00% # Distribution of time spent in the clock gated state
system.cpu06.pwrStateClkGateDist::min_value    129214000                       # Distribution of time spent in the clock gated state
[...]
system.ruby.network.int_links39.credit_link.pwrStateResidencyTicks::UNDEFINED    869926000                       # Cumulative time (in ticks) in various power states
system.ruby.network.int_links39.network_link.pwrStateResidencyTicks::UNDEFINED    869926000                       # Cumulative time (in ticks) in various power states
system.ruby.network.int_links40.credit_link.pwrStateResidencyTicks::UNDEFINED    869926000                       # Cumulative time (in ticks) in various power states
system.ruby.network.int_links40.network_link.pwrStateResidencyTicks::UNDEFINED    869926000                       # Cumulative time (in ticks) in various power states
system.ruby.network.int_links41.credit_link.pwrStateResidencyTicks::UNDEFINED    869926000                       # Cumulative time (in ticks) in various power states
system.ruby.network.int_links41.network_link.pwrStateResidencyTicks::UNDEFINED    869926000                       # Cumulative time (in ticks) in various power states
system.ruby.network.int_links42.credit_link.pwrStateResidencyTicks::UNDEFINED    869926000                       # Cumulative time (in ticks) in various power states
system.ruby.network.int_links42.network_link.pwrStateResidencyTicks::UNDEFINED    869926000                       # Cumulative time (in ticks) in various power states
system.ruby.network.int_links43.credit_link.pwrStateResidencyTicks::UNDEFINED    869926000                       # Cumulative time (in ticks) in various power states
system.ruby.network.int_links43.network_link.pwrStateResidencyTicks::UNDEFINED    869926000                       # Cumulative time (in ticks) in various power states
system.ruby.network.int_links44.credit_link.pwrStateResidencyTicks::UNDEFINED    869926000                       # Cumulative time (in ticks) in various power states
system.ruby.network.int_links44.network_link.pwrStateResidencyTicks::UNDEFINED    869926000                       # Cumulative time (in ticks) in various power states
system.ruby.network.int_links45.credit_link.pwrStateResidencyTicks::UNDEFINED    869926000                       # Cumulative time (in ticks) in various power states
system.ruby.network.int_links45.network_link.pwrStateResidencyTicks::UNDEFINED    869926000                       # Cumulative time (in ticks) in various power states
system.ruby.network.int_links46.credit_link.pwrStateResidencyTicks::UNDEFINED    869926000                       # Cumulative time (in ticks) in various power states
system.ruby.network.int_links46.network_link.pwrStateResidencyTicks::UNDEFINED    869926000                       # Cumulative time (in ticks) in various power states
system.ruby.network.int_links47.credit_link.pwrStateResidencyTicks::UNDEFINED    869926000                       # Cumulative time (in ticks) in various power states
system.ruby.network.int_links47.network_link.pwrStateResidencyTicks::UNDEFINED    869926000                       # Cumulative time (in ticks) in various power states
system.ruby.network.netifs00.pwrStateResidencyTicks::UNDEFINED    869926000                       # Cumulative time (in ticks) in various power states
system.ruby.network.netifs01.pwrStateResidencyTicks::UNDEFINED    869926000                       # Cumulative time (in ticks) in various power states
system.ruby.network.netifs02.pwrStateResidencyTicks::UNDEFINED    869926000                       # Cumulative time (in ticks) in various power states
system.ruby.network.netifs03.pwrStateResidencyTicks::UNDEFINED    869926000                       # Cumulative time (in ticks) in various power states
system.ruby.network.netifs04.pwrStateResidencyTicks::UNDEFINED    869926000                       # Cumulative time (in ticks) in various power states
system.ruby.network.netifs05.pwrStateResidencyTicks::UNDEFINED    869926000                       # Cumulative time (in ticks) in various power states
system.ruby.network.netifs06.pwrStateResidencyTicks::UNDEFINED    869926000                       # Cumulative time (in ticks) in various power states
system.ruby.network.netifs07.pwrStateResidencyTicks::UNDEFINED    869926000                       # Cumulative time (in ticks) in various power states
system.ruby.network.netifs08.pwrStateResidencyTicks::UNDEFINED    869926000                       # Cumulative time (in ticks) in various power states
system.ruby.network.netifs09.pwrStateResidencyTicks::UNDEFINED    869926000                       # Cumulative time (in ticks) in various power states
system.ruby.network.netifs10.pwrStateResidencyTicks::UNDEFINED    869926000                       # Cumulative time (in ticks) in various power states
system.ruby.network.netifs11.pwrStateResidencyTicks::UNDEFINED    869926000                       # Cumulative time (in ticks) in various power states
system.ruby.network.netifs12.pwrStateResidencyTicks::UNDEFINED    869926000                       # Cumulative time (in ticks) in various power states
system.ruby.network.netifs13.pwrStateResidencyTicks::UNDEFINED    869926000                       # Cumulative time (in ticks) in various power states
system.ruby.network.netifs14.pwrStateResidencyTicks::UNDEFINED    869926000                       # Cumulative time (in ticks) in various power states
system.ruby.network.netifs15.pwrStateResidencyTicks::UNDEFINED    869926000                       # Cumulative time (in ticks) in various power states
system.ruby.network.netifs16.pwrStateResidencyTicks::UNDEFINED    869926000                       # Cumulative time (in ticks) in various power states
system.ruby.network.netifs17.pwrStateResidencyTicks::UNDEFINED    869926000                       # Cumulative time (in ticks) in various power states
system.ruby.network.netifs18.pwrStateResidencyTicks::UNDEFINED    869926000                       # Cumulative time (in ticks) in various power states
system.ruby.network.netifs19.pwrStateResidencyTicks::UNDEFINED    869926000                       # Cumulative time (in ticks) in various power states
system.ruby.network.netifs20.pwrStateResidencyTicks::UNDEFINED    869926000                       # Cumulative time (in ticks) in various power states
system.ruby.network.netifs21.pwrStateResidencyTicks::UNDEFINED    869926000                       # Cumulative time (in ticks) in various power states
system.ruby.network.netifs22.pwrStateResidencyTicks::UNDEFINED    869926000                       # Cumulative time (in ticks) in various power states
system.ruby.network.netifs23.pwrStateResidencyTicks::UNDEFINED    869926000                       # Cumulative time (in ticks) in various power states
system.ruby.network.netifs24.pwrStateResidencyTicks::UNDEFINED    869926000                       # Cumulative time (in ticks) in various power states
system.ruby.network.netifs25.pwrStateResidencyTicks::UNDEFINED    869926000                       # Cumulative time (in ticks) in various power states
system.ruby.network.netifs26.pwrStateResidencyTicks::UNDEFINED    869926000                       # Cumulative time (in ticks) in various power states
system.ruby.network.netifs27.pwrStateResidencyTicks::UNDEFINED    869926000                       # Cumulative time (in ticks) in various power states
system.ruby.network.netifs28.pwrStateResidencyTicks::UNDEFINED    869926000                       # Cumulative time (in ticks) in various power states
system.ruby.network.netifs29.pwrStateResidencyTicks::UNDEFINED    869926000                       # Cumulative time (in ticks) in various power states
system.ruby.network.netifs30.pwrStateResidencyTicks::UNDEFINED    869926000                       # Cumulative time (in ticks) in various power states
system.ruby.network.netifs31.pwrStateResidencyTicks::UNDEFINED    869926000                       # Cumulative time (in ticks) in various power states
system.ruby.network.netifs32.pwrStateResidencyTicks::UNDEFINED    869926000                       # Cumulative time (in ticks) in various power states
system.ruby.network.netifs33.pwrStateResidencyTicks::UNDEFINED    869926000                       # Cumulative time (in ticks) in various power states
system.ruby.network.netifs34.pwrStateResidencyTicks::UNDEFINED    869926000                       # Cumulative time (in ticks) in various power states
system.ruby.network.netifs35.pwrStateResidencyTicks::UNDEFINED    869926000                       # Cumulative time (in ticks) in various power states
system.ruby.network.packet_network_latency |      628553                       |      990252                       |      226458                      
system.ruby.network.packet_queueing_latency |      192388                       |      121071                       |       18869                      
system.ruby.network.packets_injected     |       22428     34.60%     34.60% |       32741     50.51%     85.11% |        9655     14.89%    100.00%
system.ruby.network.packets_injected::total        64824                      
system.ruby.network.packets_received     |       22425     34.60%     34.60% |       32732     50.51%     85.11% |        9650     14.89%    100.00%
system.ruby.network.packets_received::total        64807                      
system.ruby.network.pwrStateResidencyTicks::UNDEFINED    869926000                       # Cumulative time (in ticks) in various power states
system.ruby.network.routers00.buffer_reads       107974                      
system.ruby.network.routers00.buffer_writes       107974                      
system.ruby.network.routers00.crossbar_activity       107967                      
system.ruby.network.routers00.pwrStateResidencyTicks::UNDEFINED    869926000                       # Cumulative time (in ticks) in various power states
system.ruby.network.routers00.sw_input_arbiter_activity       108028                      
system.ruby.network.routers00.sw_output_arbiter_activity       107967                      
system.ruby.network.routers01.buffer_reads        48496                      
system.ruby.network.routers01.buffer_writes        48496                      
system.ruby.network.routers01.crossbar_activity        48495                      
system.ruby.network.routers01.pwrStateResidencyTicks::UNDEFINED    869926000                       # Cumulative time (in ticks) in various power states
system.ruby.network.routers01.sw_input_arbiter_activity        48527                      
system.ruby.network.routers01.sw_output_arbiter_activity        48495                      
system.ruby.network.routers02.buffer_reads        33607                      
system.ruby.network.routers02.buffer_writes        33607                      
system.ruby.network.routers02.crossbar_activity        33607                      
system.ruby.network.routers02.pwrStateResidencyTicks::UNDEFINED    869926000                       # Cumulative time (in ticks) in various power states
system.ruby.network.routers02.sw_input_arbiter_activity        33646                      
system.ruby.network.routers02.sw_output_arbiter_activity        33607                      
system.ruby.network.routers03.buffer_reads        25650                      
system.ruby.network.routers03.buffer_writes        25650                      
system.ruby.network.routers03.crossbar_activity        25647                      
system.ruby.network.routers03.pwrStateResidencyTicks::UNDEFINED    869926000                       # Cumulative time (in ticks) in various power states
system.ruby.network.routers03.sw_input_arbiter_activity        25684                      
system.ruby.network.routers03.sw_output_arbiter_activity        25647                      
system.ruby.network.routers04.buffer_reads        65531                      
system.ruby.network.routers04.buffer_writes        65531                      
system.ruby.network.routers04.crossbar_activity        65529                      
system.ruby.network.routers04.pwrStateResidencyTicks::UNDEFINED    869926000                       # Cumulative time (in ticks) in various power states
system.ruby.network.routers04.sw_input_arbiter_activity        65650                      
system.ruby.network.routers04.sw_output_arbiter_activity        65529                      
system.ruby.network.routers05.buffer_reads        24042                      
system.ruby.network.routers05.buffer_writes        24042                      
system.ruby.network.routers05.crossbar_activity        24042                      
system.ruby.network.routers05.pwrStateResidencyTicks::UNDEFINED    869926000                       # Cumulative time (in ticks) in various power states
system.ruby.network.routers05.sw_input_arbiter_activity        24068                      
system.ruby.network.routers05.sw_output_arbiter_activity        24042                      
system.ruby.network.routers06.buffer_reads        19726                      
system.ruby.network.routers06.buffer_writes        19726                      
system.ruby.network.routers06.crossbar_activity        19726                      
system.ruby.network.routers06.pwrStateResidencyTicks::UNDEFINED    869926000                       # Cumulative time (in ticks) in various power states
system.ruby.network.routers06.sw_input_arbiter_activity        19758                      
system.ruby.network.routers06.sw_output_arbiter_activity        19726                      
system.ruby.network.routers07.buffer_reads        18664                      
system.ruby.network.routers07.buffer_writes        18664                      
system.ruby.network.routers07.crossbar_activity        18663                      
system.ruby.network.routers07.pwrStateResidencyTicks::UNDEFINED    869926000                       # Cumulative time (in ticks) in various power states
system.ruby.network.routers07.sw_input_arbiter_activity        18788                      
system.ruby.network.routers07.sw_output_arbiter_activity        18663                      
system.ruby.network.routers08.buffer_reads        47920                      
system.ruby.network.routers08.buffer_writes        47920                      
system.ruby.network.routers08.crossbar_activity        47917                      
system.ruby.network.routers08.pwrStateResidencyTicks::UNDEFINED    869926000                       # Cumulative time (in ticks) in various power states
system.ruby.network.routers08.sw_input_arbiter_activity        48217                      
system.ruby.network.routers08.sw_output_arbiter_activity        47917                      
system.ruby.network.routers09.buffer_reads        21905                      
system.ruby.network.routers09.buffer_writes        21905                      
system.ruby.network.routers09.crossbar_activity        21904                      
system.ruby.network.routers09.pwrStateResidencyTicks::UNDEFINED    869926000                       # Cumulative time (in ticks) in various power states
system.ruby.network.routers09.sw_input_arbiter_activity        21933                      
system.ruby.network.routers09.sw_output_arbiter_activity        21904                      
system.ruby.network.routers10.buffer_reads        22257                      
system.ruby.network.routers10.buffer_writes        22257                      
system.ruby.network.routers10.crossbar_activity        22257                      
system.ruby.network.routers10.pwrStateResidencyTicks::UNDEFINED    869926000                       # Cumulative time (in ticks) in various power states
system.ruby.network.routers10.sw_input_arbiter_activity        22298                      
system.ruby.network.routers10.sw_output_arbiter_activity        22257                      
system.ruby.network.routers11.buffer_reads        22865                      
system.ruby.network.routers11.buffer_writes        22865                      
system.ruby.network.routers11.crossbar_activity        22864                      
system.ruby.network.routers11.pwrStateResidencyTicks::UNDEFINED    869926000                       # Cumulative time (in ticks) in various power states
system.ruby.network.routers11.sw_input_arbiter_activity        23068                      
system.ruby.network.routers11.sw_output_arbiter_activity        22864                      
system.ruby.network.routers12.buffer_reads        43924                      
system.ruby.network.routers12.buffer_writes        43924                      
system.ruby.network.routers12.crossbar_activity        43918                      
system.ruby.network.routers12.pwrStateResidencyTicks::UNDEFINED    869926000                       # Cumulative time (in ticks) in various power states
system.ruby.network.routers12.sw_input_arbiter_activity        44177                      
system.ruby.network.routers12.sw_output_arbiter_activity        43918                      
system.ruby.network.routers13.buffer_reads        28357                      
system.ruby.network.routers13.buffer_writes        28357                      
system.ruby.network.routers13.crossbar_activity        28357                      
system.ruby.network.routers13.pwrStateResidencyTicks::UNDEFINED    869926000                       # Cumulative time (in ticks) in various power states
system.ruby.network.routers13.sw_input_arbiter_activity        28406                      
system.ruby.network.routers13.sw_output_arbiter_activity        28357                      
system.ruby.network.routers14.buffer_reads        23599                      
system.ruby.network.routers14.buffer_writes        23599                      
system.ruby.network.routers14.crossbar_activity        23598                      
system.ruby.network.routers14.pwrStateResidencyTicks::UNDEFINED    869926000                       # Cumulative time (in ticks) in various power states
system.ruby.network.routers14.sw_input_arbiter_activity        23637                      
system.ruby.network.routers14.sw_output_arbiter_activity        23598                      
system.ruby.network.routers15.buffer_reads        19639                      
system.ruby.network.routers15.buffer_writes        19639                      
system.ruby.network.routers15.crossbar_activity        19638                      
system.ruby.network.routers15.pwrStateResidencyTicks::UNDEFINED    869926000                       # Cumulative time (in ticks) in various power states
system.ruby.network.routers15.sw_input_arbiter_activity        19729                      
system.ruby.network.routers15.sw_output_arbiter_activity        19638                      
system.ruby.outstanding_req_hist_seqr::bucket_size            1                      
system.ruby.outstanding_req_hist_seqr::max_bucket            9                      
system.ruby.outstanding_req_hist_seqr::samples       178858                      
system.ruby.outstanding_req_hist_seqr::mean            1                      
system.ruby.outstanding_req_hist_seqr::gmean            1                      
system.ruby.outstanding_req_hist_seqr    |           0      0.00%      0.00% |      178858    100.00%    100.00% |           0      0.00%    100.00% |           0      0.00%    100.00% |           0      0.00%    100.00% |           0      0.00%    100.00% |           0      0.00%    100.00% |           0      0.00%    100.00% |           0      0.00%    100.00% |           0      0.00%    100.00%
system.ruby.outstanding_req_hist_seqr::total       178858                      
system.ruby.pwrStateResidencyTicks::UNDEFINED    869926000                       # Cumulative time (in ticks) in various power states
system.sys_port_proxy.pwrStateResidencyTicks::UNDEFINED    869926000                       # Cumulative time (in ticks) in various power states
system.voltage_domain.voltage                       1                       # Voltage in Volts

---------- End Simulation Statistics   ----------
