
---------- Begin Simulation Statistics ----------
final_tick                                  785571000                       # Number of ticks from beginning of simulation (restored from checkpoints and never reset)
host_inst_rate                                  14692                       # Simulator instruction rate (inst/s)
host_mem_usage                                5159724                       # Number of bytes of host memory used
host_op_rate                                    14739                       # Simulator op (including micro ops) rate (op/s)
host_seconds                                     8.10                       # Real time elapsed on the host
host_tick_rate                               97028917                       # Simulator tick rate (ticks/s)
sim_freq                                 1000000000000                       # Frequency of simulated ticks
sim_insts                                      118946                       # Number of instructions simulated
sim_ops                                        119331                       # Number of ops (including micro ops) simulated
sim_seconds                                  0.000786                       # Number of seconds simulated
sim_ticks                                   785571000                       # Number of ticks simulated
system.clk_domain.clock                          1000                       # Clock period in ticks
system.cpu00.Branches                           22352                       # Number of branches fetched
system.cpu00.committedInsts                    100000                       # Number of instructions committed
system.cpu00.committedOps                      100293                       # Number of ops (including micro ops) committed
system.cpu00.dtb.accesses                           0                       # DTB accesses
system.cpu00.dtb.hits                               0                       # DTB hits
system.cpu00.dtb.misses                             0                       # DTB misses
system.cpu00.dtb.pwrStateResidencyTicks::UNDEFINED    785571000                       # Cumulative time (in ticks) in various power states
system.cpu00.dtb.read_accesses                      0                       # DTB read accesses
system.cpu00.dtb.read_hits                          0                       # DTB read hits
system.cpu00.dtb.read_misses                        0                       # DTB read misses
system.cpu00.dtb.write_accesses                     0                       # DTB write accesses
system.cpu00.dtb.write_hits                         0                       # DTB write hits
system.cpu00.dtb.write_misses                       0                       # DTB write misses
system.cpu00.idle_fraction                   0.005150                       # Percentage of idle cycles
system.cpu00.itb.accesses                           0                       # DTB accesses
system.cpu00.itb.hits                               0                       # DTB hits
system.cpu00.itb.misses                             0                       # DTB misses
system.cpu00.itb.pwrStateResidencyTicks::UNDEFINED    785571000                       # Cumulative time (in ticks) in various power states
system.cpu00.itb.read_accesses                      0                       # DTB read accesses
system.cpu00.itb.read_hits                          0                       # DTB read hits
system.cpu00.itb.read_misses                        0                       # DTB read misses
system.cpu00.itb.write_accesses                     0                       # DTB write accesses
system.cpu00.itb.write_hits                         0                       # DTB write hits
system.cpu00.itb.write_misses                       0                       # DTB write misses
system.cpu00.not_idle_fraction               0.994850                       # Percentage of non-idle cycles
system.cpu00.numCycles                        1571142                       # number of cpu cycles simulated
system.cpu00.numPwrStateTransitions                 2                       # Number of power state transitions
system.cpu00.numWorkItemsCompleted                  0                       # number of work items this cpu completed
system.cpu00.numWorkItemsStarted                    0                       # number of work items this cpu started
system.cpu00.num_busy_cycles             1563051.000010                       # Number of busy cycles
system.cpu00.num_conditional_control_insts        15940                       # number of instructions that are conditional controls
system.cpu00.num_fp_alu_accesses                   12                       # Number of float alu accesses
system.cpu00.num_fp_insts                          12                       # number of float instructions
system.cpu00.num_fp_register_reads                 12                       # number of times the floating registers were read
system.cpu00.num_fp_register_writes                 0                       # number of times the floating registers were written
system.cpu00.num_func_calls                      6412                       # number of times a function call or return occured
system.cpu00.num_idle_cycles              8090.999990                       # Number of idle cycles
system.cpu00.num_int_alu_accesses               98836                       # Number of integer alu accesses
system.cpu00.num_int_insts                      98836                       # number of integer instructions
system.cpu00.num_int_register_reads            120856                       # number of times the integer registers were read
system.cpu00.num_int_register_writes            64472                       # number of times the integer registers were written
system.cpu00.num_load_insts                     20286                       # Number of load instructions
system.cpu00.num_mem_refs                       36545                       # number of memory refs
system.cpu00.num_store_insts                    16259                       # Number of store instructions
system.cpu00.num_vec_alu_accesses                   0                       # Number of vector alu accesses
system.cpu00.num_vec_insts                          0                       # number of vector instructions
system.cpu00.num_vec_register_reads                 0                       # number of times the vector registers were read
system.cpu00.num_vec_register_writes                0                       # number of times the vector registers were written
system.cpu00.op_class::No_OpClass                 859      0.86%      0.86% # Class of executed instruction
system.cpu00.op_class::IntAlu                   62925     62.70%     63.55% # Class of executed instruction
system.cpu00.op_class::IntMult                     30      0.03%     63.58% # Class of executed instruction
system.cpu00.op_class::IntDiv                       6      0.01%     63.59% # Class of executed instruction
system.cpu00.op_class::FloatAdd                     0      0.00%     63.59% # Class of executed instruction
system.cpu00.op_class::FloatCmp                     0      0.00%     63.59% # Class of executed instruction
system.cpu00.op_class::FloatCvt                     0      0.00%     63.59% # Class of executed instruction
system.cpu00.op_class::FloatMult                    0      0.00%     63.59% # Class of executed instruction
system.cpu00.op_class::FloatMultAcc                 0      0.00%     63.59% # Class of executed instruction
system.cpu00.op_class::FloatDiv                     0      0.00%     63.59% # Class of executed instruction
system.cpu00.op_class::FloatMisc                    0      0.00%     63.59% # Class of executed instruction
system.cpu00.op_class::FloatSqrt                    0      0.00%     63.59% # Class of executed instruction
system.cpu00.op_class::SimdAdd                      0      0.00%     63.59% # Class of executed instruction
system.cpu00.op_class::SimdAddAcc                   0      0.00%     63.59% # Class of executed instruction
system.cpu00.op_class::SimdAlu                      0      0.00%     63.59% # Class of executed instruction
system.cpu00.op_class::SimdCmp                      0      0.00%     63.59% # Class of executed instruction
system.cpu00.op_class::SimdCvt                      0      0.00%     63.59% # Class of executed instruction
system.cpu00.op_class::SimdMisc                     0      0.00%     63.59% # Class of executed instruction
system.cpu00.op_class::SimdMult                     0      0.00%     63.59% # Class of executed instruction
system.cpu00.op_class::SimdMultAcc                  0      0.00%     63.59% # Class of executed instruction
system.cpu00.op_class::SimdShift                    0      0.00%     63.59% # Class of executed instruction
system.cpu00.op_class::SimdShiftAcc                 0      0.00%     63.59% # Class of executed instruction
system.cpu00.op_class::SimdSqrt                     0      0.00%     63.59% # Class of executed instruction
system.cpu00.op_class::SimdFloatAdd                 0      0.00%     63.59% # Class of executed instruction
system.cpu00.op_class::SimdFloatAlu                 0      0.00%     63.59% # Class of executed instruction
system.cpu00.op_class::SimdFloatCmp                 0      0.00%     63.59% # Class of executed instruction
system.cpu00.op_class::SimdFloatCvt                 0      0.00%     63.59% # Class of executed instruction
system.cpu00.op_class::SimdFloatDiv                 0      0.00%     63.59% # Class of executed instruction
system.cpu00.op_class::SimdFloatMisc                0      0.00%     63.59% # Class of executed instruction
system.cpu00.op_class::SimdFloatMult                0      0.00%     63.59% # Class of executed instruction
system.cpu00.op_class::SimdFloatMultAcc             0      0.00%     63.59% # Class of executed instruction
system.cpu00.op_class::SimdFloatSqrt                0      0.00%     63.59% # Class of executed instruction
system.cpu00.op_class::SimdAes                      0      0.00%     63.59% # Class of executed instruction
system.cpu00.op_class::SimdAesMix                   0      0.00%     63.59% # Class of executed instruction
system.cpu00.op_class::SimdSha1Hash                 0      0.00%     63.59% # Class of executed instruction
system.cpu00.op_class::SimdSha1Hash2                0      0.00%     63.59% # Class of executed instruction
system.cpu00.op_class::SimdSha256Hash               0      0.00%     63.59% # Class of executed instruction
system.cpu00.op_class::SimdSha256Hash2              0      0.00%     63.59% # Class of executed instruction
system.cpu00.op_class::SimdShaSigma2                0      0.00%     63.59% # Class of executed instruction
system.cpu00.op_class::SimdShaSigma3                0      0.00%     63.59% # Class of executed instruction
system.cpu00.op_class::MemRead                  20571     20.50%     84.08% # Class of executed instruction
system.cpu00.op_class::MemWrite                 15962     15.90%     99.99% # Class of executed instruction
system.cpu00.op_class::FloatMemRead                 0      0.00%     99.99% # Class of executed instruction
system.cpu00.op_class::FloatMemWrite               12      0.01%    100.00% # Class of executed instruction
system.cpu00.op_class::IprAccess                    0      0.00%    100.00% # Class of executed instruction
system.cpu00.op_class::InstPrefetch                 0      0.00%    100.00% # Class of executed instruction
system.cpu00.op_class::total                   100365                       # Class of executed instruction
system.cpu00.pwrStateClkGateDist::samples            1                       # Distribution of time spent in the clock gated state
system.cpu00.pwrStateClkGateDist::mean        4045500                       # Distribution of time spent in the clock gated state
system.cpu00.pwrStateClkGateDist::1000-5e+10            1    100.00%    100.00% # Distribution of time spent in the clock gated state
system.cpu00.pwrStateClkGateDist::min_value      4045500                       # Distribution of time spent in the clock gated state
system.cpu00.pwrStateClkGateDist::max_value      4045500                       # Distribution of time spent in the clock gated state
system.cpu00.pwrStateClkGateDist::total             1                       # Distribution of time spent in the clock gated state
system.cpu00.pwrStateResidencyTicks::ON     781525500                       # Cumulative time (in ticks) in various power states
system.cpu00.pwrStateResidencyTicks::CLK_GATED      4045500                       # Cumulative time (in ticks) in various power states
system.cpu00.workload.numSyscalls                  71                       # Number of system calls
system.cpu01.Branches                             211                       # Number of branches fetched
system.cpu01.committedInsts                      1071                       # Number of instructions committed
system.cpu01.committedOps                        1078                       # Number of ops (including micro ops) committed
system.cpu01.dtb.accesses                           0                       # DTB accesses
system.cpu01.dtb.hits                               0                       # DTB hits
system.cpu01.dtb.misses                             0                       # DTB misses
system.cpu01.dtb.pwrStateResidencyTicks::UNDEFINED    785571000                       # Cumulative time (in ticks) in various power states
system.cpu01.dtb.read_accesses                      0                       # DTB read accesses
system.cpu01.dtb.read_hits                          0                       # DTB read hits
system.cpu01.dtb.read_misses                        0                       # DTB read misses
system.cpu01.dtb.write_accesses                     0                       # DTB write accesses
system.cpu01.dtb.write_hits                         0                       # DTB write hits
system.cpu01.dtb.write_misses                       0                       # DTB write misses
system.cpu01.idle_fraction                   0.979915                       # Percentage of idle cycles
system.cpu01.itb.accesses                           0                       # DTB accesses
system.cpu01.itb.hits                               0                       # DTB hits
system.cpu01.itb.misses                             0                       # DTB misses
system.cpu01.itb.pwrStateResidencyTicks::UNDEFINED    785571000                       # Cumulative time (in ticks) in various power states
system.cpu01.itb.read_accesses                      0                       # DTB read accesses
system.cpu01.itb.read_hits                          0                       # DTB read hits
system.cpu01.itb.read_misses                        0                       # DTB read misses
system.cpu01.itb.write_accesses                     0                       # DTB write accesses
system.cpu01.itb.write_hits                         0                       # DTB write hits
system.cpu01.itb.write_misses                       0                       # DTB write misses
system.cpu01.not_idle_fraction               0.020085                       # Percentage of non-idle cycles
system.cpu01.numCycles                        1571072                       # number of cpu cycles simulated
system.cpu01.numPwrStateTransitions                 2                       # Number of power state transitions
system.cpu01.numWorkItemsCompleted                  0                       # number of work items this cpu completed
system.cpu01.numWorkItemsStarted                    0                       # number of work items this cpu started
system.cpu01.num_busy_cycles             31554.596027                       # Number of busy cycles
system.cpu01.num_conditional_control_insts          112                       # number of instructions that are conditional controls
system.cpu01.num_fp_alu_accesses                   12                       # Number of float alu accesses
system.cpu01.num_fp_insts                          12                       # number of float instructions
system.cpu01.num_fp_register_reads                 12                       # number of times the floating registers were read
system.cpu01.num_fp_register_writes                 0                       # number of times the floating registers were written
system.cpu01.num_func_calls                        99                       # number of times a function call or return occured
system.cpu01.num_idle_cycles             1539517.403973                       # Number of idle cycles
system.cpu01.num_int_alu_accesses                1054                       # Number of integer alu accesses
system.cpu01.num_int_insts                       1054                       # number of integer instructions
system.cpu01.num_int_register_reads              1232                       # number of times the integer registers were read
system.cpu01.num_int_register_writes              734                       # number of times the integer registers were written
system.cpu01.num_load_insts                       239                       # Number of load instructions
system.cpu01.num_mem_refs                         415                       # number of memory refs
system.cpu01.num_store_insts                      176                       # Number of store instructions
system.cpu01.num_vec_alu_accesses                   0                       # Number of vector alu accesses
system.cpu01.num_vec_insts                          0                       # number of vector instructions
system.cpu01.num_vec_register_reads                 0                       # number of times the vector registers were read
system.cpu01.num_vec_register_writes                0                       # number of times the vector registers were written
system.cpu01.op_class::No_OpClass                  11      1.02%      1.02% # Class of executed instruction
system.cpu01.op_class::IntAlu                     651     60.28%     61.30% # Class of executed instruction
system.cpu01.op_class::IntMult                      1      0.09%     61.39% # Class of executed instruction
system.cpu01.op_class::IntDiv                       2      0.19%     61.57% # Class of executed instruction
system.cpu01.op_class::FloatAdd                     0      0.00%     61.57% # Class of executed instruction
system.cpu01.op_class::FloatCmp                     0      0.00%     61.57% # Class of executed instruction
system.cpu01.op_class::FloatCvt                     0      0.00%     61.57% # Class of executed instruction
system.cpu01.op_class::FloatMult                    0      0.00%     61.57% # Class of executed instruction
system.cpu01.op_class::FloatMultAcc                 0      0.00%     61.57% # Class of executed instruction
system.cpu01.op_class::FloatDiv                     0      0.00%     61.57% # Class of executed instruction
system.cpu01.op_class::FloatMisc                    0      0.00%     61.57% # Class of executed instruction
system.cpu01.op_class::FloatSqrt                    0      0.00%     61.57% # Class of executed instruction
system.cpu01.op_class::SimdAdd                      0      0.00%     61.57% # Class of executed instruction
system.cpu01.op_class::SimdAddAcc                   0      0.00%     61.57% # Class of executed instruction
system.cpu01.op_class::SimdAlu                      0      0.00%     61.57% # Class of executed instruction
system.cpu01.op_class::SimdCmp                      0      0.00%     61.57% # Class of executed instruction
system.cpu01.op_class::SimdCvt                      0      0.00%     61.57% # Class of executed instruction
system.cpu01.op_class::SimdMisc                     0      0.00%     61.57% # Class of executed instruction
system.cpu01.op_class::SimdMult                     0      0.00%     61.57% # Class of executed instruction
system.cpu01.op_class::SimdMultAcc                  0      0.00%     61.57% # Class of executed instruction
system.cpu01.op_class::SimdShift                    0      0.00%     61.57% # Class of executed instruction
system.cpu01.op_class::SimdShiftAcc                 0      0.00%     61.57% # Class of executed instruction
system.cpu01.op_class::SimdSqrt                     0      0.00%     61.57% # Class of executed instruction
system.cpu01.op_class::SimdFloatAdd                 0      0.00%     61.57% # Class of executed instruction
system.cpu01.op_class::SimdFloatAlu                 0      0.00%     61.57% # Class of executed instruction
system.cpu01.op_class::SimdFloatCmp                 0      0.00%     61.57% # Class of executed instruction
system.cpu01.op_class::SimdFloatCvt                 0      0.00%     61.57% # Class of executed instruction
system.cpu01.op_class::SimdFloatDiv                 0      0.00%     61.57% # Class of executed instruction
system.cpu01.op_class::SimdFloatMisc                0      0.00%     61.57% # Class of executed instruction
system.cpu01.op_class::SimdFloatMult                0      0.00%     61.57% # Class of executed instruction
system.cpu01.op_class::SimdFloatMultAcc             0      0.00%     61.57% # Class of executed instruction
system.cpu01.op_class::SimdFloatSqrt                0      0.00%     61.57% # Class of executed instruction
system.cpu01.op_class::SimdAes                      0      0.00%     61.57% # Class of executed instruction
system.cpu01.op_class::SimdAesMix                   0      0.00%     61.57% # Class of executed instruction
system.cpu01.op_class::SimdSha1Hash                 0      0.00%     61.57% # Class of executed instruction
system.cpu01.op_class::SimdSha1Hash2                0      0.00%     61.57% # Class of executed instruction
system.cpu01.op_class::SimdSha256Hash               0      0.00%     61.57% # Class of executed instruction
system.cpu01.op_class::SimdSha256Hash2              0      0.00%     61.57% # Class of executed instruction
system.cpu01.op_class::SimdShaSigma2                0      0.00%     61.57% # Class of executed instruction
system.cpu01.op_class::SimdShaSigma3                0      0.00%     61.57% # Class of executed instruction
system.cpu01.op_class::MemRead                    243     22.50%     84.07% # Class of executed instruction
system.cpu01.op_class::MemWrite                   160     14.81%     98.89% # Class of executed instruction
system.cpu01.op_class::FloatMemRead                 0      0.00%     98.89% # Class of executed instruction
system.cpu01.op_class::FloatMemWrite               12      1.11%    100.00% # Class of executed instruction
system.cpu01.op_class::IprAccess                    0      0.00%    100.00% # Class of executed instruction
system.cpu01.op_class::InstPrefetch                 0      0.00%    100.00% # Class of executed instruction
system.cpu01.op_class::total                     1080                       # Class of executed instruction
system.cpu01.pwrStateClkGateDist::samples            1                       # Distribution of time spent in the clock gated state
system.cpu01.pwrStateClkGateDist::mean      158527000                       # Distribution of time spent in the clock gated state
system.cpu01.pwrStateClkGateDist::1000-5e+10            1    100.00%    100.00% # Distribution of time spent in the clock gated state
system.cpu01.pwrStateClkGateDist::min_value    158527000                       # Distribution of time spent in the clock gated state
system.cpu01.pwrStateClkGateDist::max_value    158527000                       # Distribution of time spent in the clock gated state
system.cpu01.pwrStateClkGateDist::total             1                       # Distribution of time spent in the clock gated state
system.cpu01.pwrStateResidencyTicks::ON     627044000                       # Cumulative time (in ticks) in various power states
system.cpu01.pwrStateResidencyTicks::CLK_GATED    158527000                       # Cumulative time (in ticks) in various power states
system.cpu02.Branches                             265                       # Number of branches fetched
system.cpu02.committedInsts                      1367                       # Number of instructions committed
system.cpu02.committedOps                        1374                       # Number of ops (including micro ops) committed
system.cpu02.dtb.accesses                           0                       # DTB accesses
system.cpu02.dtb.hits                               0                       # DTB hits
system.cpu02.dtb.misses                             0                       # DTB misses
system.cpu02.dtb.pwrStateResidencyTicks::UNDEFINED    785571000                       # Cumulative time (in ticks) in various power states
system.cpu02.dtb.read_accesses                      0                       # DTB read accesses
system.cpu02.dtb.read_hits                          0                       # DTB read hits
system.cpu02.dtb.read_misses                        0                       # DTB read misses
system.cpu02.dtb.write_accesses                     0                       # DTB write accesses
system.cpu02.dtb.write_hits                         0                       # DTB write hits
system.cpu02.dtb.write_misses                       0                       # DTB write misses
system.cpu02.idle_fraction                   0.982920                       # Percentage of idle cycles
system.cpu02.itb.accesses                           0                       # DTB accesses
system.cpu02.itb.hits                               0                       # DTB hits
system.cpu02.itb.misses                             0                       # DTB misses
system.cpu02.itb.pwrStateResidencyTicks::UNDEFINED    785571000                       # Cumulative time (in ticks) in various power states
system.cpu02.itb.read_accesses                      0                       # DTB read accesses
system.cpu02.itb.read_hits                          0                       # DTB read hits
system.cpu02.itb.read_misses                        0                       # DTB read misses
system.cpu02.itb.write_accesses                     0                       # DTB write accesses
system.cpu02.itb.write_hits                         0                       # DTB write hits
system.cpu02.itb.write_misses                       0                       # DTB write misses
system.cpu02.not_idle_fraction               0.017080                       # Percentage of non-idle cycles
system.cpu02.numCycles                        1571142                       # number of cpu cycles simulated
system.cpu02.numPwrStateTransitions                 2                       # Number of power state transitions
system.cpu02.numWorkItemsCompleted                  0                       # number of work items this cpu completed
system.cpu02.numWorkItemsStarted                    0                       # number of work items this cpu started
system.cpu02.num_busy_cycles             26835.001966                       # Number of busy cycles
system.cpu02.num_conditional_control_insts          140                       # number of instructions that are conditional controls
system.cpu02.num_fp_alu_accesses                   12                       # Number of float alu accesses
system.cpu02.num_fp_insts                          12                       # number of float instructions
system.cpu02.num_fp_register_reads                 12                       # number of times the floating registers were read
system.cpu02.num_fp_register_writes                 0                       # number of times the floating registers were written
system.cpu02.num_func_calls                       125                       # number of times a function call or return occured
system.cpu02.num_idle_cycles             1544306.998034                       # Number of idle cycles
system.cpu02.num_int_alu_accesses                1345                       # Number of integer alu accesses
system.cpu02.num_int_insts                       1345                       # number of integer instructions
system.cpu02.num_int_register_reads              1567                       # number of times the integer registers were read
system.cpu02.num_int_register_writes              954                       # number of times the integer registers were written
system.cpu02.num_load_insts                       315                       # Number of load instructions
system.cpu02.num_mem_refs                         523                       # number of memory refs
system.cpu02.num_store_insts                      208                       # Number of store instructions
system.cpu02.num_vec_alu_accesses                   0                       # Number of vector alu accesses
system.cpu02.num_vec_insts                          0                       # number of vector instructions
system.cpu02.num_vec_register_reads                 0                       # number of times the vector registers were read
system.cpu02.num_vec_register_writes                0                       # number of times the vector registers were written
system.cpu02.op_class::No_OpClass                  11      0.80%      0.80% # Class of executed instruction
system.cpu02.op_class::IntAlu                     839     60.97%     61.77% # Class of executed instruction
system.cpu02.op_class::IntMult                      1      0.07%     61.85% # Class of executed instruction
system.cpu02.op_class::IntDiv                       2      0.15%     61.99% # Class of executed instruction
system.cpu02.op_class::FloatAdd                     0      0.00%     61.99% # Class of executed instruction
system.cpu02.op_class::FloatCmp                     0      0.00%     61.99% # Class of executed instruction
system.cpu02.op_class::FloatCvt                     0      0.00%     61.99% # Class of executed instruction
system.cpu02.op_class::FloatMult                    0      0.00%     61.99% # Class of executed instruction
system.cpu02.op_class::FloatMultAcc                 0      0.00%     61.99% # Class of executed instruction
system.cpu02.op_class::FloatDiv                     0      0.00%     61.99% # Class of executed instruction
system.cpu02.op_class::FloatMisc                    0      0.00%     61.99% # Class of executed instruction
system.cpu02.op_class::FloatSqrt                    0      0.00%     61.99% # Class of executed instruction
system.cpu02.op_class::SimdAdd                      0      0.00%     61.99% # Class of executed instruction
system.cpu02.op_class::SimdAddAcc                   0      0.00%     61.99% # Class of executed instruction
system.cpu02.op_class::SimdAlu                      0      0.00%     61.99% # Class of executed instruction
system.cpu02.op_class::SimdCmp                      0      0.00%     61.99% # Class of executed instruction
system.cpu02.op_class::SimdCvt                      0      0.00%     61.99% # Class of executed instruction
system.cpu02.op_class::SimdMisc                     0      0.00%     61.99% # Class of executed instruction
system.cpu02.op_class::SimdMult                     0      0.00%     61.99% # Class of executed instruction
system.cpu02.op_class::SimdMultAcc                  0      0.00%     61.99% # Class of executed instruction
system.cpu02.op_class::SimdShift                    0      0.00%     61.99% # Class of executed instruction
system.cpu02.op_class::SimdShiftAcc                 0      0.00%     61.99% # Class of executed instruction
system.cpu02.op_class::SimdSqrt                     0      0.00%     61.99% # Class of executed instruction
system.cpu02.op_class::SimdFloatAdd                 0      0.00%     61.99% # Class of executed instruction
system.cpu02.op_class::SimdFloatAlu                 0      0.00%     61.99% # Class of executed instruction
system.cpu02.op_class::SimdFloatCmp                 0      0.00%     61.99% # Class of executed instruction
system.cpu02.op_class::SimdFloatCvt                 0      0.00%     61.99% # Class of executed instruction
system.cpu02.op_class::SimdFloatDiv                 0      0.00%     61.99% # Class of executed instruction
system.cpu02.op_class::SimdFloatMisc                0      0.00%     61.99% # Class of executed instruction
system.cpu02.op_class::SimdFloatMult                0      0.00%     61.99% # Class of executed instruction
system.cpu02.op_class::SimdFloatMultAcc             0      0.00%     61.99% # Class of executed instruction
system.cpu02.op_class::SimdFloatSqrt                0      0.00%     61.99% # Class of executed instruction
system.cpu02.op_class::SimdAes                      0      0.00%     61.99% # Class of executed instruction
system.cpu02.op_class::SimdAesMix                   0      0.00%     61.99% # Class of executed instruction
system.cpu02.op_class::SimdSha1Hash                 0      0.00%     61.99% # Class of executed instruction
system.cpu02.op_class::SimdSha1Hash2                0      0.00%     61.99% # Class of executed instruction
system.cpu02.op_class::SimdSha256Hash               0      0.00%     61.99% # Class of executed instruction
system.cpu02.op_class::SimdSha256Hash2              0      0.00%     61.99% # Class of executed instruction
system.cpu02.op_class::SimdShaSigma2                0      0.00%     61.99% # Class of executed instruction
system.cpu02.op_class::SimdShaSigma3                0      0.00%     61.99% # Class of executed instruction
system.cpu02.op_class::MemRead                    319     23.18%     85.17% # Class of executed instruction
system.cpu02.op_class::MemWrite                   192     13.95%     99.13% # Class of executed instruction
system.cpu02.op_class::FloatMemRead                 0      0.00%     99.13% # Class of executed instruction
system.cpu02.op_class::FloatMemWrite               12      0.87%    100.00% # Class of executed instruction
system.cpu02.op_class::IprAccess                    0      0.00%    100.00% # Class of executed instruction
system.cpu02.op_class::InstPrefetch                 0      0.00%    100.00% # Class of executed instruction
system.cpu02.op_class::total                     1376                       # Class of executed instruction
system.cpu02.pwrStateClkGateDist::samples            1                       # Distribution of time spent in the clock gated state
system.cpu02.pwrStateClkGateDist::mean      148747000                       # Distribution of time spent in the clock gated state
system.cpu02.pwrStateClkGateDist::1000-5e+10            1    100.00%    100.00% # Distribution of time spent in the clock gated state
system.cpu02.pwrStateClkGateDist::min_value    148747000                       # Distribution of time spent in the clock gated state
system.cpu02.pwrStateClkGateDist::max_value    148747000                       # Distribution of time spent in the clock gated state
system.cpu02.pwrStateClkGateDist::total             1                       # Distribution of time spent in the clock gated state
system.cpu02.pwrStateResidencyTicks::ON     636824000                       # Cumulative time (in ticks) in various power states
system.cpu02.pwrStateResidencyTicks::CLK_GATED    148747000                       # Cumulative time (in ticks) in various power states
system.cpu03.Branches                             262                       # Number of branches fetched
system.cpu03.committedInsts                      1344                       # Number of instructions committed
system.cpu03.committedOps                        1350                       # Number of ops (including micro ops) committed
system.cpu03.dtb.accesses                           0                       # DTB accesses
system.cpu03.dtb.hits                               0                       # DTB hits
system.cpu03.dtb.misses                             0                       # DTB misses
system.cpu03.dtb.pwrStateResidencyTicks::UNDEFINED    785571000                       # Cumulative time (in ticks) in various power states
system.cpu03.dtb.read_accesses                      0                       # DTB read accesses
system.cpu03.dtb.read_hits                          0                       # DTB read hits
system.cpu03.dtb.read_misses                        0                       # DTB read misses
system.cpu03.dtb.write_accesses                     0                       # DTB write accesses
system.cpu03.dtb.write_hits                         0                       # DTB write hits
system.cpu03.dtb.write_misses                       0                       # DTB write misses
system.cpu03.idle_fraction                   0.981953                       # Percentage of idle cycles
system.cpu03.itb.accesses                           0                       # DTB accesses
system.cpu03.itb.hits                               0                       # DTB hits
system.cpu03.itb.misses                             0                       # DTB misses
system.cpu03.itb.pwrStateResidencyTicks::UNDEFINED    785571000                       # Cumulative time (in ticks) in various power states
system.cpu03.itb.read_accesses                      0                       # DTB read accesses
system.cpu03.itb.read_hits                          0                       # DTB read hits
system.cpu03.itb.read_misses                        0                       # DTB read misses
system.cpu03.itb.write_accesses                     0                       # DTB write accesses
system.cpu03.itb.write_hits                         0                       # DTB write hits
system.cpu03.itb.write_misses                       0                       # DTB write misses
system.cpu03.not_idle_fraction               0.018047                       # Percentage of non-idle cycles
system.cpu03.numCycles                        1571115                       # number of cpu cycles simulated
system.cpu03.numPwrStateTransitions                 2                       # Number of power state transitions
system.cpu03.numWorkItemsCompleted                  0                       # number of work items this cpu completed
system.cpu03.numWorkItemsStarted                    0                       # number of work items this cpu started
system.cpu03.num_busy_cycles             28354.514685                       # Number of busy cycles
system.cpu03.num_conditional_control_insts          134                       # number of instructions that are conditional controls
system.cpu03.num_fp_alu_accesses                   12                       # Number of float alu accesses
system.cpu03.num_fp_insts                          12                       # number of float instructions
system.cpu03.num_fp_register_reads                 12                       # number of times the floating registers were read
system.cpu03.num_fp_register_writes                 0                       # number of times the floating registers were written
system.cpu03.num_func_calls                       128                       # number of times a function call or return occured
system.cpu03.num_idle_cycles             1542760.485315                       # Number of idle cycles
system.cpu03.num_int_alu_accesses                1318                       # Number of integer alu accesses
system.cpu03.num_int_insts                       1318                       # number of integer instructions
system.cpu03.num_int_register_reads              1536                       # number of times the integer registers were read
system.cpu03.num_int_register_writes              935                       # number of times the integer registers were written
system.cpu03.num_load_insts                       308                       # Number of load instructions
system.cpu03.num_mem_refs                         512                       # number of memory refs
system.cpu03.num_store_insts                      204                       # Number of store instructions
system.cpu03.num_vec_alu_accesses                   0                       # Number of vector alu accesses
system.cpu03.num_vec_insts                          0                       # number of vector instructions
system.cpu03.num_vec_register_reads                 0                       # number of times the vector registers were read
system.cpu03.num_vec_register_writes                0                       # number of times the vector registers were written
system.cpu03.op_class::No_OpClass                  10      0.74%      0.74% # Class of executed instruction
system.cpu03.op_class::IntAlu                     827     61.17%     61.91% # Class of executed instruction
system.cpu03.op_class::IntMult                      1      0.07%     61.98% # Class of executed instruction
system.cpu03.op_class::IntDiv                       2      0.15%     62.13% # Class of executed instruction
system.cpu03.op_class::FloatAdd                     0      0.00%     62.13% # Class of executed instruction
system.cpu03.op_class::FloatCmp                     0      0.00%     62.13% # Class of executed instruction
system.cpu03.op_class::FloatCvt                     0      0.00%     62.13% # Class of executed instruction
system.cpu03.op_class::FloatMult                    0      0.00%     62.13% # Class of executed instruction
system.cpu03.op_class::FloatMultAcc                 0      0.00%     62.13% # Class of executed instruction
system.cpu03.op_class::FloatDiv                     0      0.00%     62.13% # Class of executed instruction
system.cpu03.op_class::FloatMisc                    0      0.00%     62.13% # Class of executed instruction
system.cpu03.op_class::FloatSqrt                    0      0.00%     62.13% # Class of executed instruction
system.cpu03.op_class::SimdAdd                      0      0.00%     62.13% # Class of executed instruction
system.cpu03.op_class::SimdAddAcc                   0      0.00%     62.13% # Class of executed instruction
system.cpu03.op_class::SimdAlu                      0      0.00%     62.13% # Class of executed instruction
system.cpu03.op_class::SimdCmp                      0      0.00%     62.13% # Class of executed instruction
system.cpu03.op_class::SimdCvt                      0      0.00%     62.13% # Class of executed instruction
system.cpu03.op_class::SimdMisc                     0      0.00%     62.13% # Class of executed instruction
system.cpu03.op_class::SimdMult                     0      0.00%     62.13% # Class of executed instruction
system.cpu03.op_class::SimdMultAcc                  0      0.00%     62.13% # Class of executed instruction
system.cpu03.op_class::SimdShift                    0      0.00%     62.13% # Class of executed instruction
system.cpu03.op_class::SimdShiftAcc                 0      0.00%     62.13% # Class of executed instruction
system.cpu03.op_class::SimdSqrt                     0      0.00%     62.13% # Class of executed instruction
system.cpu03.op_class::SimdFloatAdd                 0      0.00%     62.13% # Class of executed instruction
system.cpu03.op_class::SimdFloatAlu                 0      0.00%     62.13% # Class of executed instruction
system.cpu03.op_class::SimdFloatCmp                 0      0.00%     62.13% # Class of executed instruction
system.cpu03.op_class::SimdFloatCvt                 0      0.00%     62.13% # Class of executed instruction
system.cpu03.op_class::SimdFloatDiv                 0      0.00%     62.13% # Class of executed instruction
system.cpu03.op_class::SimdFloatMisc                0      0.00%     62.13% # Class of executed instruction
system.cpu03.op_class::SimdFloatMult                0      0.00%     62.13% # Class of executed instruction
system.cpu03.op_class::SimdFloatMultAcc             0      0.00%     62.13% # Class of executed instruction
system.cpu03.op_class::SimdFloatSqrt                0      0.00%     62.13% # Class of executed instruction
system.cpu03.op_class::SimdAes                      0      0.00%     62.13% # Class of executed instruction
system.cpu03.op_class::SimdAesMix                   0      0.00%     62.13% # Class of executed instruction
system.cpu03.op_class::SimdSha1Hash                 0      0.00%     62.13% # Class of executed instruction
system.cpu03.op_class::SimdSha1Hash2                0      0.00%     62.13% # Class of executed instruction
system.cpu03.op_class::SimdSha256Hash               0      0.00%     62.13% # Class of executed instruction
system.cpu03.op_class::SimdSha256Hash2              0      0.00%     62.13% # Class of executed instruction
system.cpu03.op_class::SimdShaSigma2                0      0.00%     62.13% # Class of executed instruction
system.cpu03.op_class::SimdShaSigma3                0      0.00%     62.13% # Class of executed instruction
system.cpu03.op_class::MemRead                    312     23.08%     85.21% # Class of executed instruction
system.cpu03.op_class::MemWrite                   188     13.91%     99.11% # Class of executed instruction
system.cpu03.op_class::FloatMemRead                 0      0.00%     99.11% # Class of executed instruction
system.cpu03.op_class::FloatMemWrite               12      0.89%    100.00% # Class of executed instruction
system.cpu03.op_class::IprAccess                    0      0.00%    100.00% # Class of executed instruction
system.cpu03.op_class::InstPrefetch                 0      0.00%    100.00% # Class of executed instruction
system.cpu03.op_class::total                     1352                       # Class of executed instruction
system.cpu03.pwrStateClkGateDist::samples            1                       # Distribution of time spent in the clock gated state
system.cpu03.pwrStateClkGateDist::mean      136279000                       # Distribution of time spent in the clock gated state
system.cpu03.pwrStateClkGateDist::1000-5e+10            1    100.00%    100.00% # Distribution of time spent in the clock gated state
system.cpu03.pwrStateClkGateDist::min_value    136279000                       # Distribution of time spent in the clock gated state
system.cpu03.pwrStateClkGateDist::max_value    136279000                       # Distribution of time spent in the clock gated state
system.cpu03.pwrStateClkGateDist::total             1                       # Distribution of time spent in the clock gated state
system.cpu03.pwrStateResidencyTicks::ON     649292000                       # Cumulative time (in ticks) in various power states
system.cpu03.pwrStateResidencyTicks::CLK_GATED    136279000                       # Cumulative time (in ticks) in various power states
system.cpu04.Branches                             205                       # Number of branches fetched
system.cpu04.committedInsts                      1032                       # Number of instructions committed
system.cpu04.committedOps                        1039                       # Number of ops (including micro ops) committed
system.cpu04.dtb.accesses                           0                       # DTB accesses
system.cpu04.dtb.hits                               0                       # DTB hits
system.cpu04.dtb.misses                             0                       # DTB misses
system.cpu04.dtb.pwrStateResidencyTicks::UNDEFINED    785571000                       # Cumulative time (in ticks) in various power states
system.cpu04.dtb.read_accesses                      0                       # DTB read accesses
system.cpu04.dtb.read_hits                          0                       # DTB read hits
system.cpu04.dtb.read_misses                        0                       # DTB read misses
system.cpu04.dtb.write_accesses                     0                       # DTB write accesses
system.cpu04.dtb.write_hits                         0                       # DTB write hits
system.cpu04.dtb.write_misses                       0                       # DTB write misses
system.cpu04.idle_fraction                   0.983152                       # Percentage of idle cycles
system.cpu04.itb.accesses                           0                       # DTB accesses
system.cpu04.itb.hits                               0                       # DTB hits
system.cpu04.itb.misses                             0                       # DTB misses
system.cpu04.itb.pwrStateResidencyTicks::UNDEFINED    785571000                       # Cumulative time (in ticks) in various power states
system.cpu04.itb.read_accesses                      0                       # DTB read accesses
system.cpu04.itb.read_hits                          0                       # DTB read hits
system.cpu04.itb.read_misses                        0                       # DTB read misses
system.cpu04.itb.write_accesses                     0                       # DTB write accesses
system.cpu04.itb.write_hits                         0                       # DTB write hits
system.cpu04.itb.write_misses                       0                       # DTB write misses
system.cpu04.not_idle_fraction               0.016848                       # Percentage of non-idle cycles
system.cpu04.numCycles                        1571102                       # number of cpu cycles simulated
system.cpu04.numPwrStateTransitions                 2                       # Number of power state transitions
system.cpu04.numWorkItemsCompleted                  0                       # number of work items this cpu completed
system.cpu04.numWorkItemsStarted                    0                       # number of work items this cpu started
system.cpu04.num_busy_cycles             26469.328062                       # Number of busy cycles
system.cpu04.num_conditional_control_insts          106                       # number of instructions that are conditional controls
system.cpu04.num_fp_alu_accesses                   12                       # Number of float alu accesses
system.cpu04.num_fp_insts                          12                       # number of float instructions
system.cpu04.num_fp_register_reads                 12                       # number of times the floating registers were read
system.cpu04.num_fp_register_writes                 0                       # number of times the floating registers were written
system.cpu04.num_func_calls                        99                       # number of times a function call or return occured
system.cpu04.num_idle_cycles             1544632.671938                       # Number of idle cycles
system.cpu04.num_int_alu_accesses                1012                       # Number of integer alu accesses
system.cpu04.num_int_insts                       1012                       # number of integer instructions
system.cpu04.num_int_register_reads              1186                       # number of times the integer registers were read
system.cpu04.num_int_register_writes              703                       # number of times the integer registers were written
system.cpu04.num_load_insts                       230                       # Number of load instructions
system.cpu04.num_mem_refs                         402                       # number of memory refs
system.cpu04.num_store_insts                      172                       # Number of store instructions
system.cpu04.num_vec_alu_accesses                   0                       # Number of vector alu accesses
system.cpu04.num_vec_insts                          0                       # number of vector instructions
system.cpu04.num_vec_register_reads                 0                       # number of times the vector registers were read
system.cpu04.num_vec_register_writes                0                       # number of times the vector registers were written
system.cpu04.op_class::No_OpClass                  11      1.06%      1.06% # Class of executed instruction
system.cpu04.op_class::IntAlu                     625     60.04%     61.10% # Class of executed instruction
system.cpu04.op_class::IntMult                      1      0.10%     61.19% # Class of executed instruction
system.cpu04.op_class::IntDiv                       2      0.19%     61.38% # Class of executed instruction
system.cpu04.op_class::FloatAdd                     0      0.00%     61.38% # Class of executed instruction
system.cpu04.op_class::FloatCmp                     0      0.00%     61.38% # Class of executed instruction
system.cpu04.op_class::FloatCvt                     0      0.00%     61.38% # Class of executed instruction
system.cpu04.op_class::FloatMult                    0      0.00%     61.38% # Class of executed instruction
system.cpu04.op_class::FloatMultAcc                 0      0.00%     61.38% # Class of executed instruction
system.cpu04.op_class::FloatDiv                     0      0.00%     61.38% # Class of executed instruction
system.cpu04.op_class::FloatMisc                    0      0.00%     61.38% # Class of executed instruction
system.cpu04.op_class::FloatSqrt                    0      0.00%     61.38% # Class of executed instruction
system.cpu04.op_class::SimdAdd                      0      0.00%     61.38% # Class of executed instruction
system.cpu04.op_class::SimdAddAcc                   0      0.00%     61.38% # Class of executed instruction
system.cpu04.op_class::SimdAlu                      0      0.00%     61.38% # Class of executed instruction
system.cpu04.op_class::SimdCmp                      0      0.00%     61.38% # Class of executed instruction
system.cpu04.op_class::SimdCvt                      0      0.00%     61.38% # Class of executed instruction
system.cpu04.op_class::SimdMisc                     0      0.00%     61.38% # Class of executed instruction
system.cpu04.op_class::SimdMult                     0      0.00%     61.38% # Class of executed instruction
system.cpu04.op_class::SimdMultAcc                  0      0.00%     61.38% # Class of executed instruction
system.cpu04.op_class::SimdShift                    0      0.00%     61.38% # Class of executed instruction
system.cpu04.op_class::SimdShiftAcc                 0      0.00%     61.38% # Class of executed instruction
system.cpu04.op_class::SimdSqrt                     0      0.00%     61.38% # Class of executed instruction
system.cpu04.op_class::SimdFloatAdd                 0      0.00%     61.38% # Class of executed instruction
system.cpu04.op_class::SimdFloatAlu                 0      0.00%     61.38% # Class of executed instruction
system.cpu04.op_class::SimdFloatCmp                 0      0.00%     61.38% # Class of executed instruction
system.cpu04.op_class::SimdFloatCvt                 0      0.00%     61.38% # Class of executed instruction
system.cpu04.op_class::SimdFloatDiv                 0      0.00%     61.38% # Class of executed instruction
system.cpu04.op_class::SimdFloatMisc                0      0.00%     61.38% # Class of executed instruction
system.cpu04.op_class::SimdFloatMult                0      0.00%     61.38% # Class of executed instruction
system.cpu04.op_class::SimdFloatMultAcc             0      0.00%     61.38% # Class of executed instruction
system.cpu04.op_class::SimdFloatSqrt                0      0.00%     61.38% # Class of executed instruction
system.cpu04.op_class::SimdAes                      0      0.00%     61.38% # Class of executed instruction
system.cpu04.op_class::SimdAesMix                   0      0.00%     61.38% # Class of executed instruction
system.cpu04.op_class::SimdSha1Hash                 0      0.00%     61.38% # Class of executed instruction
system.cpu04.op_class::SimdSha1Hash2                0      0.00%     61.38% # Class of executed instruction
system.cpu04.op_class::SimdSha256Hash               0      0.00%     61.38% # Class of executed instruction
system.cpu04.op_class::SimdSha256Hash2              0      0.00%     61.38% # Class of executed instruction
system.cpu04.op_class::SimdShaSigma2                0      0.00%     61.38% # Class of executed instruction
system.cpu04.op_class::SimdShaSigma3                0      0.00%     61.38% # Class of executed instruction
system.cpu04.op_class::MemRead                    234     22.48%     83.86% # Class of executed instruction
system.cpu04.op_class::MemWrite                   156     14.99%     98.85% # Class of executed instruction
system.cpu04.op_class::FloatMemRead                 0      0.00%     98.85% # Class of executed instruction
system.cpu04.op_class::FloatMemWrite               12      1.15%    100.00% # Class of executed instruction
system.cpu04.op_class::IprAccess                    0      0.00%    100.00% # Class of executed instruction
system.cpu04.op_class::InstPrefetch                 0      0.00%    100.00% # Class of executed instruction
system.cpu04.op_class::total                     1041                       # Class of executed instruction
system.cpu04.pwrStateClkGateDist::samples            1                       # Distribution of time spent in the clock gated state
system.cpu04.pwrStateClkGateDist::mean      126107000                       # Distribution of time spent in the clock gated state
system.cpu04.pwrStateClkGateDist::1000-5e+10            1    100.00%    100.00% # Distribution of time spent in the clock gated state
system.cpu04.pwrStateClkGateDist::min_value    126107000                       # Distribution of time spent in the clock gated state
system.cpu04.pwrStateClkGateDist::max_value    126107000                       # Distribution of time spent in the clock gated state
system.cpu04.pwrStateClkGateDist::total             1                       # Distribution of time spent in the clock gated state
system.cpu04.pwrStateResidencyTicks::ON     659464000                       # Cumulative time (in ticks) in various power states
system.cpu04.pwrStateResidencyTicks::CLK_GATED    126107000                       # Cumulative time (in ticks) in various power states
system.cpu05.Branches                             245                       # Number of branches fetched
system.cpu05.committedInsts                      1251                       # Number of instructions committed
system.cpu05.committedOps                        1258                       # Number of ops (including micro ops) committed
system.cpu05.dtb.accesses                           0                       # DTB accesses
system.cpu05.dtb.hits                               0                       # DTB hits
system.cpu05.dtb.misses                             0                       # DTB misses
system.cpu05.dtb.pwrStateResidencyTicks::UNDEFINED    785571000                       # Cumulative time (in ticks) in various power states
system.cpu05.dtb.read_accesses                      0                       # DTB read accesses
system.cpu05.dtb.read_hits                          0                       # DTB read hits
system.cpu05.dtb.read_misses                        0                       # DTB read misses
system.cpu05.dtb.write_accesses                     0                       # DTB write accesses
system.cpu05.dtb.write_hits                         0                       # DTB write hits
system.cpu05.dtb.write_misses                       0                       # DTB write misses
system.cpu05.idle_fraction                   0.982984                       # Percentage of idle cycles
system.cpu05.itb.accesses                           0                       # DTB accesses
system.cpu05.itb.hits                               0                       # DTB hits
system.cpu05.itb.misses                             0                       # DTB misses
system.cpu05.itb.pwrStateResidencyTicks::UNDEFINED    785571000                       # Cumulative time (in ticks) in various power states
system.cpu05.itb.read_accesses                      0                       # DTB read accesses
system.cpu05.itb.read_hits                          0                       # DTB read hits
system.cpu05.itb.read_misses                        0                       # DTB read misses
system.cpu05.itb.write_accesses                     0                       # DTB write accesses
system.cpu05.itb.write_hits                         0                       # DTB write hits
system.cpu05.itb.write_misses                       0                       # DTB write misses
system.cpu05.not_idle_fraction               0.017016                       # Percentage of non-idle cycles
system.cpu05.numCycles                        1571142                       # number of cpu cycles simulated
system.cpu05.numPwrStateTransitions                 2                       # Number of power state transitions
system.cpu05.numWorkItemsCompleted                  0                       # number of work items this cpu completed
system.cpu05.numWorkItemsStarted                    0                       # number of work items this cpu started
system.cpu05.num_busy_cycles             26735.001966                       # Number of busy cycles
system.cpu05.num_conditional_control_insts          128                       # number of instructions that are conditional controls
system.cpu05.num_fp_alu_accesses                   12                       # Number of float alu accesses
system.cpu05.num_fp_insts                          12                       # number of float instructions
system.cpu05.num_fp_register_reads                 12                       # number of times the floating registers were read
system.cpu05.num_fp_register_writes                 0                       # number of times the floating registers were written
system.cpu05.num_func_calls                       117                       # number of times a function call or return occured
system.cpu05.num_idle_cycles             1544406.998034                       # Number of idle cycles
system.cpu05.num_int_alu_accesses                1229                       # Number of integer alu accesses
system.cpu05.num_int_insts                       1229                       # number of integer instructions
system.cpu05.num_int_register_reads              1434                       # number of times the integer registers were read
system.cpu05.num_int_register_writes              867                       # number of times the integer registers were written
system.cpu05.num_load_insts                       287                       # Number of load instructions
system.cpu05.num_mem_refs                         482                       # number of memory refs
system.cpu05.num_store_insts                      195                       # Number of store instructions
system.cpu05.num_vec_alu_accesses                   0                       # Number of vector alu accesses
system.cpu05.num_vec_insts                          0                       # number of vector instructions
system.cpu05.num_vec_register_reads                 0                       # number of times the vector registers were read
system.cpu05.num_vec_register_writes                0                       # number of times the vector registers were written
system.cpu05.op_class::No_OpClass                  11      0.87%      0.87% # Class of executed instruction
system.cpu05.op_class::IntAlu                     764     60.63%     61.51% # Class of executed instruction
system.cpu05.op_class::IntMult                      1      0.08%     61.59% # Class of executed instruction
system.cpu05.op_class::IntDiv                       2      0.16%     61.75% # Class of executed instruction
system.cpu05.op_class::FloatAdd                     0      0.00%     61.75% # Class of executed instruction
system.cpu05.op_class::FloatCmp                     0      0.00%     61.75% # Class of executed instruction
system.cpu05.op_class::FloatCvt                     0      0.00%     61.75% # Class of executed instruction
system.cpu05.op_class::FloatMult                    0      0.00%     61.75% # Class of executed instruction
system.cpu05.op_class::FloatMultAcc                 0      0.00%     61.75% # Class of executed instruction
system.cpu05.op_class::FloatDiv                     0      0.00%     61.75% # Class of executed instruction
system.cpu05.op_class::FloatMisc                    0      0.00%     61.75% # Class of executed instruction
system.cpu05.op_class::FloatSqrt                    0      0.00%     61.75% # Class of executed instruction
system.cpu05.op_class::SimdAdd                      0      0.00%     61.75% # Class of executed instruction
system.cpu05.op_class::SimdAddAcc                   0      0.00%     61.75% # Class of executed instruction
system.cpu05.op_class::SimdAlu                      0      0.00%     61.75% # Class of executed instruction
system.cpu05.op_class::SimdCmp                      0      0.00%     61.75% # Class of executed instruction
system.cpu05.op_class::SimdCvt                      0      0.00%     61.75% # Class of executed instruction
system.cpu05.op_class::SimdMisc                     0      0.00%     61.75% # Class of executed instruction
system.cpu05.op_class::SimdMult                     0      0.00%     61.75% # Class of executed instruction
system.cpu05.op_class::SimdMultAcc                  0      0.00%     61.75% # Class of executed instruction
system.cpu05.op_class::SimdShift                    0      0.00%     61.75% # Class of executed instruction
system.cpu05.op_class::SimdShiftAcc                 0      0.00%     61.75% # Class of executed instruction
system.cpu05.op_class::SimdSqrt                     0      0.00%     61.75% # Class of executed instruction
system.cpu05.op_class::SimdFloatAdd                 0      0.00%     61.75% # Class of executed instruction
system.cpu05.op_class::SimdFloatAlu                 0      0.00%     61.75% # Class of executed instruction
system.cpu05.op_class::SimdFloatCmp                 0      0.00%     61.75% # Class of executed instruction
system.cpu05.op_class::SimdFloatCvt                 0      0.00%     61.75% # Class of executed instruction
system.cpu05.op_class::SimdFloatDiv                 0      0.00%     61.75% # Class of executed instruction
system.cpu05.op_class::SimdFloatMisc                0      0.00%     61.75% # Class of executed instruction
system.cpu05.op_class::SimdFloatMult                0      0.00%     61.75% # Class of executed instruction
system.cpu05.op_class::SimdFloatMultAcc             0      0.00%     61.75% # Class of executed instruction
system.cpu05.op_class::SimdFloatSqrt                0      0.00%     61.75% # Class of executed instruction
system.cpu05.op_class::SimdAes                      0      0.00%     61.75% # Class of executed instruction
system.cpu05.op_class::SimdAesMix                   0      0.00%     61.75% # Class of executed instruction
system.cpu05.op_class::SimdSha1Hash                 0      0.00%     61.75% # Class of executed instruction
system.cpu05.op_class::SimdSha1Hash2                0      0.00%     61.75% # Class of executed instruction
system.cpu05.op_class::SimdSha256Hash               0      0.00%     61.75% # Class of executed instruction
system.cpu05.op_class::SimdSha256Hash2              0      0.00%     61.75% # Class of executed instruction
system.cpu05.op_class::SimdShaSigma2                0      0.00%     61.75% # Class of executed instruction
system.cpu05.op_class::SimdShaSigma3                0      0.00%     61.75% # Class of executed instruction
system.cpu05.op_class::MemRead                    291     23.10%     84.84% # Class of executed instruction
system.cpu05.op_class::MemWrite                   179     14.21%     99.05% # Class of executed instruction
system.cpu05.op_class::FloatMemRead                 0      0.00%     99.05% # Class of executed instruction
system.cpu05.op_class::FloatMemWrite               12      0.95%    100.00% # Class of executed instruction
system.cpu05.op_class::IprAccess                    0      0.00%    100.00% # Class of executed instruction
system.cpu05.op_class::InstPrefetch                 0      0.00%    100.00% # Class of executed instruction
system.cpu05.op_class::total                     1260                       # Class of executed instruction
system.cpu05.pwrStateClkGateDist::samples            1                       # Distribution of time spent in the clock gated state
system.cpu05.pwrStateClkGateDist::mean      114545500                       # Distribution of time spent in the clock gated state
system.cpu05.pwrStateClkGateDist::1000-5e+10            1    100.00%    100.00% # Distribution of time spent in the clock gated state
system.cpu05.pwrStateClkGateDist::min_value    114545500                       # Distribution of time spent in the clock gated state
system.cpu05.pwrStateClkGateDist::max_value    114545500                       # Distribution of time spent in the clock gated state
system.cpu05.pwrStateClkGateDist::total             1                       # Distribution of time spent in the clock gated state
system.cpu05.pwrStateResidencyTicks::ON     671025500                       # Cumulative time (in ticks) in various power states
system.cpu05.pwrStateResidencyTicks::CLK_GATED    114545500                       # Cumulative time (in ticks) in various power states
system.cpu06.Branches                             233                       # Number of branches fetched
system.cpu06.committedInsts                      1184                       # Number of instructions committed
system.cpu06.committedOps                        1191                       # Number of ops (including micro ops) committed
system.cpu06.dtb.accesses                           0                       # DTB accesses
system.cpu06.dtb.hits                               0                       # DTB hits
system.cpu06.dtb.misses                             0                       # DTB misses
system.cpu06.dtb.pwrStateResidencyTicks::UNDEFINED    785571000                       # Cumulative time (in ticks) in various power states
system.cpu06.dtb.read_accesses                      0                       # DTB read accesses
system.cpu06.dtb.read_hits                          0                       # DTB read hits
system.cpu06.dtb.read_misses                        0                       # DTB read misses
system.cpu06.dtb.write_accesses                     0                       # DTB write accesses
system.cpu06.dtb.write_hits                         0                       # DTB write hits
system.cpu06.dtb.write_misses                       0                       # DTB write misses
system.cpu06.idle_fraction                   0.983339                       # Percentage of idle cycles
system.cpu06.itb.accesses                           0                       # DTB accesses
system.cpu06.itb.hits                               0                       # DTB hits
system.cpu06.itb.misses                             0                       # DTB misses
system.cpu06.itb.pwrStateResidencyTicks::UNDEFINED    785571000                       # Cumulative time (in ticks) in various power states
system.cpu06.itb.read_accesses                      0                       # DTB read accesses
system.cpu06.itb.read_hits                          0                       # DTB read hits
system.cpu06.itb.read_misses                        0                       # DTB read misses
system.cpu06.itb.write_accesses                     0                       # DTB write accesses
system.cpu06.itb.write_hits                         0                       # DTB write hits
system.cpu06.itb.write_misses                       0                       # DTB write misses
system.cpu06.not_idle_fraction               0.016661                       # Percentage of non-idle cycles
system.cpu06.numCycles                        1571009                       # number of cpu cycles simulated
system.cpu06.numPwrStateTransitions                 2                       # Number of power state transitions
system.cpu06.numWorkItemsCompleted                  0                       # number of work items this cpu completed
system.cpu06.numWorkItemsStarted                    0                       # number of work items this cpu started
system.cpu06.num_busy_cycles             26174.786036                       # Number of busy cycles
system.cpu06.num_conditional_control_insts          121                       # number of instructions that are conditional controls
system.cpu06.num_fp_alu_accesses                   12                       # Number of float alu accesses
system.cpu06.num_fp_insts                          12                       # number of float instructions
system.cpu06.num_fp_register_reads                 12                       # number of times the floating registers were read
system.cpu06.num_fp_register_writes                 0                       # number of times the floating registers were written
system.cpu06.num_func_calls                       112                       # number of times a function call or return occured
system.cpu06.num_idle_cycles             1544834.213964                       # Number of idle cycles
system.cpu06.num_int_alu_accesses                1162                       # Number of integer alu accesses
system.cpu06.num_int_insts                       1162                       # number of integer instructions
system.cpu06.num_int_register_reads              1358                       # number of times the integer registers were read
system.cpu06.num_int_register_writes              816                       # number of times the integer registers were written
system.cpu06.num_load_insts                       268                       # Number of load instructions
system.cpu06.num_mem_refs                         456                       # number of memory refs
system.cpu06.num_store_insts                      188                       # Number of store instructions
system.cpu06.num_vec_alu_accesses                   0                       # Number of vector alu accesses
system.cpu06.num_vec_insts                          0                       # number of vector instructions
system.cpu06.num_vec_register_reads                 0                       # number of times the vector registers were read
system.cpu06.num_vec_register_writes                0                       # number of times the vector registers were written
system.cpu06.op_class::No_OpClass                  11      0.92%      0.92% # Class of executed instruction
system.cpu06.op_class::IntAlu                     723     60.60%     61.53% # Class of executed instruction
system.cpu06.op_class::IntMult                      1      0.08%     61.61% # Class of executed instruction
system.cpu06.op_class::IntDiv                       2      0.17%     61.78% # Class of executed instruction
system.cpu06.op_class::FloatAdd                     0      0.00%     61.78% # Class of executed instruction
system.cpu06.op_class::FloatCmp                     0      0.00%     61.78% # Class of executed instruction
system.cpu06.op_class::FloatCvt                     0      0.00%     61.78% # Class of executed instruction
system.cpu06.op_class::FloatMult                    0      0.00%     61.78% # Class of executed instruction
system.cpu06.op_class::FloatMultAcc                 0      0.00%     61.78% # Class of executed instruction
system.cpu06.op_class::FloatDiv                     0      0.00%     61.78% # Class of executed instruction
system.cpu06.op_class::FloatMisc                    0      0.00%     61.78% # Class of executed instruction
system.cpu06.op_class::FloatSqrt                    0      0.00%     61.78% # Class of executed instruction
system.cpu06.op_class::SimdAdd                      0      0.00%     61.78% # Class of executed instruction
system.cpu06.op_class::SimdAddAcc                   0      0.00%     61.78% # Class of executed instruction
system.cpu06.op_class::SimdAlu                      0      0.00%     61.78% # Class of executed instruction
system.cpu06.op_class::SimdCmp                      0      0.00%     61.78% # Class of executed instruction
system.cpu06.op_class::SimdCvt                      0      0.00%     61.78% # Class of executed instruction
system.cpu06.op_class::SimdMisc                     0      0.00%     61.78% # Class of executed instruction
system.cpu06.op_class::SimdMult                     0      0.00%     61.78% # Class of executed instruction
system.cpu06.op_class::SimdMultAcc                  0      0.00%     61.78% # Class of executed instruction
system.cpu06.op_class::SimdShift                    0      0.00%     61.78% # Class of executed instruction
system.cpu06.op_class::SimdShiftAcc                 0      0.00%     61.78% # Class of executed instruction
system.cpu06.op_class::SimdSqrt                     0      0.00%     61.78% # Class of executed instruction
system.cpu06.op_class::SimdFloatAdd                 0      0.00%     61.78% # Class of executed instruction
system.cpu06.op_class::SimdFloatAlu                 0      0.00%     61.78% # Class of executed instruction
system.cpu06.op_class::SimdFloatCmp                 0      0.00%     61.78% # Class of executed instruction
system.cpu06.op_class::SimdFloatCvt                 0      0.00%     61.78% # Class of executed instruction
system.cpu06.op_class::SimdFloatDiv                 0      0.00%     61.78% # Class of executed instruction
system.cpu06.op_class::SimdFloatMisc                0      0.00%     61.78% # Class of executed instruction
system.cpu06.op_class::SimdFloatMult                0      0.00%     61.78% # Class of executed instruction
system.cpu06.op_class::SimdFloatMultAcc             0      0.00%     61.78% # Class of executed instruction
system.cpu06.op_class::SimdFloatSqrt                0      0.00%     61.78% # Class of executed instruction
system.cpu06.op_class::SimdAes                      0      0.00%     61.78% # Class of executed instruction
system.cpu06.op_class::SimdAesMix                   0      0.00%     61.78% # Class of executed instruction
system.cpu06.op_class::SimdSha1Hash                 0      0.00%     61.78% # Class of executed instruction
system.cpu06.op_class::SimdSha1Hash2                0      0.00%     61.78% # Class of executed instruction
system.cpu06.op_class::SimdSha256Hash               0      0.00%     61.78% # Class of executed instruction
system.cpu06.op_class::SimdSha256Hash2              0      0.00%     61.78% # Class of executed instruction
system.cpu06.op_class::SimdShaSigma2                0      0.00%     61.78% # Class of executed instruction
system.cpu06.op_class::SimdShaSigma3                0      0.00%     61.78% # Class of executed instruction
system.cpu06.op_class::MemRead                    272     22.80%     84.58% # Class of executed instruction
system.cpu06.op_class::MemWrite                   172     14.42%     98.99% # Class of executed instruction
system.cpu06.op_class::FloatMemRead                 0      0.00%     98.99% # Class of executed instruction
system.cpu06.op_class::FloatMemWrite               12      1.01%    100.00% # Class of executed instruction
system.cpu06.op_class::IprAccess                    0      0.00%    100.00% # Class of executed instruction
system.cpu06.op_class::InstPrefetch                 0      0.00%    100.00% # Class of executed instruction
system.cpu06.op_class::total                     1193                       # Class of executed instruction
system.cpu06.pwrStateClkGateDist::samples            1                       # Distribution of time spent in the clock gated state
system.cpu06.pwrStateClkGateDist::mean      103583000                       # Distribution of time spent in the clock gated state
system.cpu06.pwrStateClkGateDist::1000-5e+10            1    100.00%    100.00% # Distribution of time spent in the clock gated state
system.cpu06.pwrStateClkGateDist::min_value    103583000                       # Distribution of time spent in the clock gated state
[...]
system.ruby.network.int_links39.credit_link.pwrStateResidencyTicks::UNDEFINED    785571000                       # Cumulative time (in ticks) in various power states
system.ruby.network.int_links39.network_link.pwrStateResidencyTicks::UNDEFINED    785571000                       # Cumulative time (in ticks) in various power states
system.ruby.network.int_links40.credit_link.pwrStateResidencyTicks::UNDEFINED    785571000                       # Cumulative time (in ticks) in various power states
system.ruby.network.int_links40.network_link.pwrStateResidencyTicks::UNDEFINED    785571000                       # Cumulative time (in ticks) in various power states
system.ruby.network.int_links41.credit_link.pwrStateResidencyTicks::UNDEFINED    785571000                       # Cumulative time (in ticks) in various power states
system.ruby.network.int_links41.network_link.pwrStateResidencyTicks::UNDEFINED    785571000                       # Cumulative time (in ticks) in various power states
system.ruby.network.int_links42.credit_link.pwrStateResidencyTicks::UNDEFINED    785571000                       # Cumulative time (in ticks) in various power states
system.ruby.network.int_links42.network_link.pwrStateResidencyTicks::UNDEFINED    785571000                       # Cumulative time (in ticks) in various power states
system.ruby.network.int_links43.credit_link.pwrStateResidencyTicks::UNDEFINED    785571000                       # Cumulative time (in ticks) in various power states
system.ruby.network.int_links43.network_link.pwrStateResidencyTicks::UNDEFINED    785571000                       # Cumulative time (in ticks) in various power states
system.ruby.network.int_links44.credit_link.pwrStateResidencyTicks::UNDEFINED    785571000                       # Cumulative time (in ticks) in various power states
system.ruby.network.int_links44.network_link.pwrStateResidencyTicks::UNDEFINED    785571000                       # Cumulative time (in ticks) in various power states
system.ruby.network.int_links45.credit_link.pwrStateResidencyTicks::UNDEFINED    785571000                       # Cumulative time (in ticks) in various power states
system.ruby.network.int_links45.network_link.pwrStateResidencyTicks::UNDEFINED    785571000                       # Cumulative time (in ticks) in various power states
system.ruby.network.int_links46.credit_link.pwrStateResidencyTicks::UNDEFINED    785571000                       # Cumulative time (in ticks) in various power states
system.ruby.network.int_links46.network_link.pwrStateResidencyTicks::UNDEFINED    785571000                       # Cumulative time (in ticks) in various power states
system.ruby.network.int_links47.credit_link.pwrStateResidencyTicks::UNDEFINED    785571000                       # Cumulative time (in ticks) in various power states
system.ruby.network.int_links47.network_link.pwrStateResidencyTicks::UNDEFINED    785571000                       # Cumulative time (in ticks) in various power states
system.ruby.network.netifs00.pwrStateResidencyTicks::UNDEFINED    785571000                       # Cumulative time (in ticks) in various power states
system.ruby.network.netifs01.pwrStateResidencyTicks::UNDEFINED    785571000                       # Cumulative time (in ticks) in various power states
system.ruby.network.netifs02.pwrStateResidencyTicks::UNDEFINED    785571000                       # Cumulative time (in ticks) in various power states
system.ruby.network.netifs03.pwrStateResidencyTicks::UNDEFINED    785571000                       # Cumulative time (in ticks) in various power states
system.ruby.network.netifs04.pwrStateResidencyTicks::UNDEFINED    785571000                       # Cumulative time (in ticks) in various power states
system.ruby.network.netifs05.pwrStateResidencyTicks::UNDEFINED    785571000                       # Cumulative time (in ticks) in various power states
system.ruby.network.netifs06.pwrStateResidencyTicks::UNDEFINED    785571000                       # Cumulative time (in ticks) in various power states
system.ruby.network.netifs07.pwrStateResidencyTicks::UNDEFINED    785571000                       # Cumulative time (in ticks) in various power states
system.ruby.network.netifs08.pwrStateResidencyTicks::UNDEFINED    785571000                       # Cumulative time (in ticks) in various power states
system.ruby.network.netifs09.pwrStateResidencyTicks::UNDEFINED    785571000                       # Cumulative time (in ticks) in various power states
system.ruby.network.netifs10.pwrStateResidencyTicks::UNDEFINED    785571000                       # Cumulative time (in ticks) in various power states
system.ruby.network.netifs11.pwrStateResidencyTicks::UNDEFINED    785571000                       # Cumulative time (in ticks) in various power states
system.ruby.network.netifs12.pwrStateResidencyTicks::UNDEFINED    785571000                       # Cumulative time (in ticks) in various power states
system.ruby.network.netifs13.pwrStateResidencyTicks::UNDEFINED    785571000                       # Cumulative time (in ticks) in various power states
system.ruby.network.netifs14.pwrStateResidencyTicks::UNDEFINED    785571000                       # Cumulative time (in ticks) in various power states
system.ruby.network.netifs15.pwrStateResidencyTicks::UNDEFINED    785571000                       # Cumulative time (in ticks) in various power states
system.ruby.network.netifs16.pwrStateResidencyTicks::UNDEFINED    785571000                       # Cumulative time (in ticks) in various power states
system.ruby.network.netifs17.pwrStateResidencyTicks::UNDEFINED    785571000                       # Cumulative time (in ticks) in various power states
system.ruby.network.netifs18.pwrStateResidencyTicks::UNDEFINED    785571000                       # Cumulative time (in ticks) in various power states
system.ruby.network.netifs19.pwrStateResidencyTicks::UNDEFINED    785571000                       # Cumulative time (in ticks) in various power states
system.ruby.network.netifs20.pwrStateResidencyTicks::UNDEFINED    785571000                       # Cumulative time (in ticks) in various power states
system.ruby.network.netifs21.pwrStateResidencyTicks::UNDEFINED    785571000                       # Cumulative time (in ticks) in various power states
system.ruby.network.netifs22.pwrStateResidencyTicks::UNDEFINED    785571000                       # Cumulative time (in ticks) in various power states
system.ruby.network.netifs23.pwrStateResidencyTicks::UNDEFINED    785571000                       # Cumulative time (in ticks) in various power states
system.ruby.network.netifs24.pwrStateResidencyTicks::UNDEFINED    785571000                       # Cumulative time (in ticks) in various power states
system.ruby.network.netifs25.pwrStateResidencyTicks::UNDEFINED    785571000                       # Cumulative time (in ticks) in various power states
system.ruby.network.netifs26.pwrStateResidencyTicks::UNDEFINED    785571000                       # Cumulative time (in ticks) in various power states
system.ruby.network.netifs27.pwrStateResidencyTicks::UNDEFINED    785571000                       # Cumulative time (in ticks) in various power states
system.ruby.network.netifs28.pwrStateResidencyTicks::UNDEFINED    785571000                       # Cumulative time (in ticks) in various power states
system.ruby.network.netifs29.pwrStateResidencyTicks::UNDEFINED    785571000                       # Cumulative time (in ticks) in various power states
system.ruby.network.netifs30.pwrStateResidencyTicks::UNDEFINED    785571000                       # Cumulative time (in ticks) in various power states
system.ruby.network.netifs31.pwrStateResidencyTicks::UNDEFINED    785571000                       # Cumulative time (in ticks) in various power states
system.ruby.network.netifs32.pwrStateResidencyTicks::UNDEFINED    785571000                       # Cumulative time (in ticks) in various power states
system.ruby.network.netifs33.pwrStateResidencyTicks::UNDEFINED    785571000                       # Cumulative time (in ticks) in various power states
system.ruby.network.netifs34.pwrStateResidencyTicks::UNDEFINED    785571000                       # Cumulative time (in ticks) in various power states
system.ruby.network.netifs35.pwrStateResidencyTicks::UNDEFINED    785571000                       # Cumulative time (in ticks) in various power states
system.ruby.network.packet_network_latency |      636198                       |      969396                       |      236520                      
system.ruby.network.packet_queueing_latency |       50283                       |       47263                       |       10228                      
system.ruby.network.packets_injected     |       22257     34.48%     34.48% |       32369     50.15%     84.64% |        9917     15.36%    100.00%
system.ruby.network.packets_injected::total        64543                      
system.ruby.network.packets_received     |       22254     34.49%     34.49% |       32357     50.15%     84.64% |        9913     15.36%    100.00%
system.ruby.network.packets_received::total        64524                      
system.ruby.network.pwrStateResidencyTicks::UNDEFINED    785571000                       # Cumulative time (in ticks) in various power states
system.ruby.network.routers00.buffer_reads       105511                      
system.ruby.network.routers00.buffer_writes       105511                      
system.ruby.network.routers00.crossbar_activity       105510                      
system.ruby.network.routers00.pwrStateResidencyTicks::UNDEFINED    785571000                       # Cumulative time (in ticks) in various power states
system.ruby.network.routers00.sw_input_arbiter_activity       105745                      
system.ruby.network.routers00.sw_output_arbiter_activity       105510                      
system.ruby.network.routers01.buffer_reads        47011                      
system.ruby.network.routers01.buffer_writes        47011                      
system.ruby.network.routers01.crossbar_activity        47011                      
system.ruby.network.routers01.pwrStateResidencyTicks::UNDEFINED    785571000                       # Cumulative time (in ticks) in various power states
system.ruby.network.routers01.sw_input_arbiter_activity        47064                      
system.ruby.network.routers01.sw_output_arbiter_activity        47011                      
system.ruby.network.routers02.buffer_reads        34372                      
system.ruby.network.routers02.buffer_writes        34372                      
system.ruby.network.routers02.crossbar_activity        34370                      
system.ruby.network.routers02.pwrStateResidencyTicks::UNDEFINED    785571000                       # Cumulative time (in ticks) in various power states
system.ruby.network.routers02.sw_input_arbiter_activity        34481                      
system.ruby.network.routers02.sw_output_arbiter_activity        34370                      
system.ruby.network.routers03.buffer_reads        25834                      
system.ruby.network.routers03.buffer_writes        25834                      
system.ruby.network.routers03.crossbar_activity        25833                      
system.ruby.network.routers03.pwrStateResidencyTicks::UNDEFINED    785571000                       # Cumulative time (in ticks) in various power states
system.ruby.network.routers03.sw_input_arbiter_activity        25995                      
system.ruby.network.routers03.sw_output_arbiter_activity        25833                      
system.ruby.network.routers04.buffer_reads        64638                      
system.ruby.network.routers04.buffer_writes        64638                      
system.ruby.network.routers04.crossbar_activity        64638                      
system.ruby.network.routers04.pwrStateResidencyTicks::UNDEFINED    785571000                       # Cumulative time (in ticks) in various power states
system.ruby.network.routers04.sw_input_arbiter_activity        64939                      
system.ruby.network.routers04.sw_output_arbiter_activity        64638                      
system.ruby.network.routers05.buffer_reads        24380                      
system.ruby.network.routers05.buffer_writes        24380                      
system.ruby.network.routers05.crossbar_activity        24380                      
system.ruby.network.routers05.pwrStateResidencyTicks::UNDEFINED    785571000                       # Cumulative time (in ticks) in various power states
system.ruby.network.routers05.sw_input_arbiter_activity        24412                      
system.ruby.network.routers05.sw_output_arbiter_activity        24380                      
system.ruby.network.routers06.buffer_reads        19191                      
system.ruby.network.routers06.buffer_writes        19191                      
system.ruby.network.routers06.crossbar_activity        19191                      
system.ruby.network.routers06.pwrStateResidencyTicks::UNDEFINED    785571000                       # Cumulative time (in ticks) in various power states
system.ruby.network.routers06.sw_input_arbiter_activity        19224                      
system.ruby.network.routers06.sw_output_arbiter_activity        19191                      
system.ruby.network.routers07.buffer_reads        21021                      
system.ruby.network.routers07.buffer_writes        21021                      
system.ruby.network.routers07.crossbar_activity        21020                      
system.ruby.network.routers07.pwrStateResidencyTicks::UNDEFINED    785571000                       # Cumulative time (in ticks) in various power states
system.ruby.network.routers07.sw_input_arbiter_activity        21210                      
system.ruby.network.routers07.sw_output_arbiter_activity        21020                      
system.ruby.network.routers08.buffer_reads        47892                      
system.ruby.network.routers08.buffer_writes        47892                      
system.ruby.network.routers08.crossbar_activity        47891                      
system.ruby.network.routers08.pwrStateResidencyTicks::UNDEFINED    785571000                       # Cumulative time (in ticks) in various power states
system.ruby.network.routers08.sw_input_arbiter_activity        48733                      
system.ruby.network.routers08.sw_output_arbiter_activity        47891                      
system.ruby.network.routers09.buffer_reads        24467                      
system.ruby.network.routers09.buffer_writes        24467                      
system.ruby.network.routers09.crossbar_activity        24466                      
system.ruby.network.routers09.pwrStateResidencyTicks::UNDEFINED    785571000                       # Cumulative time (in ticks) in various power states
system.ruby.network.routers09.sw_input_arbiter_activity        24547                      
system.ruby.network.routers09.sw_output_arbiter_activity        24466                      
system.ruby.network.routers10.buffer_reads        25360                      
system.ruby.network.routers10.buffer_writes        25360                      
system.ruby.network.routers10.crossbar_activity        25360                      
system.ruby.network.routers10.pwrStateResidencyTicks::UNDEFINED    785571000                       # Cumulative time (in ticks) in various power states
system.ruby.network.routers10.sw_input_arbiter_activity        25540                      
system.ruby.network.routers10.sw_output_arbiter_activity        25360                      
system.ruby.network.routers11.buffer_reads        29445                      
system.ruby.network.routers11.buffer_writes        29445                      
system.ruby.network.routers11.crossbar_activity        29443                      
system.ruby.network.routers11.pwrStateResidencyTicks::UNDEFINED    785571000                       # Cumulative time (in ticks) in various power states
system.ruby.network.routers11.sw_input_arbiter_activity        31022                      
system.ruby.network.routers11.sw_output_arbiter_activity        29443                      
system.ruby.network.routers12.buffer_reads        43378                      
system.ruby.network.routers12.buffer_writes        43378                      
system.ruby.network.routers12.crossbar_activity        43373                      
system.ruby.network.routers12.pwrStateResidencyTicks::UNDEFINED    785571000                       # Cumulative time (in ticks) in various power states
system.ruby.network.routers12.sw_input_arbiter_activity        45243                      
system.ruby.network.routers12.sw_output_arbiter_activity        43373                      
system.ruby.network.routers13.buffer_reads        30058                      
system.ruby.network.routers13.buffer_writes        30058                      
system.ruby.network.routers13.crossbar_activity        30055                      
system.ruby.network.routers13.pwrStateResidencyTicks::UNDEFINED    785571000                       # Cumulative time (in ticks) in various power states
system.ruby.network.routers13.sw_input_arbiter_activity        30221                      
system.ruby.network.routers13.sw_output_arbiter_activity        30055                      
system.ruby.network.routers14.buffer_reads        25473                      
system.ruby.network.routers14.buffer_writes        25473                      
system.ruby.network.routers14.crossbar_activity        25472                      
system.ruby.network.routers14.pwrStateResidencyTicks::UNDEFINED    785571000                       # Cumulative time (in ticks) in various power states
system.ruby.network.routers14.sw_input_arbiter_activity        25609                      
system.ruby.network.routers14.sw_output_arbiter_activity        25472                      
system.ruby.network.routers15.buffer_reads        23524                      
system.ruby.network.routers15.buffer_writes        23524                      
system.ruby.network.routers15.crossbar_activity        23524                      
system.ruby.network.routers15.pwrStateResidencyTicks::UNDEFINED    785571000                       # Cumulative time (in ticks) in various power states
system.ruby.network.routers15.sw_input_arbiter_activity        24019                      
system.ruby.network.routers15.sw_output_arbiter_activity        23524                      
system.ruby.outstanding_req_hist_seqr::bucket_size            1                      
system.ruby.outstanding_req_hist_seqr::max_bucket            9                      
system.ruby.outstanding_req_hist_seqr::samples       186228                      
system.ruby.outstanding_req_hist_seqr::mean            1                      
system.ruby.outstanding_req_hist_seqr::gmean            1                      
system.ruby.outstanding_req_hist_seqr    |           0      0.00%      0.00% |      186228    100.00%    100.00% |           0      0.00%    100.00% |           0      0.00%    100.00% |           0      0.00%    100.00% |           0      0.00%    100.00% |           0      0.00%    100.00% |           0      0.00%    100.00% |           0      0.00%    100.00% |           0      0.00%    100.00%
system.ruby.outstanding_req_hist_seqr::total       186228                      
system.ruby.pwrStateResidencyTicks::UNDEFINED    785571000                       # Cumulative time (in ticks) in various power states
system.sys_port_proxy.pwrStateResidencyTicks::UNDEFINED    785571000                       # Cumulative time (in ticks) in various power states
system.voltage_domain.voltage                       1                       # Voltage in Volts

---------- End Simulation Statistics   ----------
